<?xml version="1.0" encoding="UTF-8"?>

<!-- generated on 01/26/14 16:16:00 by SUMO duarouter Version 0.19.0
<?xml version="1.0" encoding="UTF-8"?>

<configuration xmlns:xsi="http://www.w3.org/2001/XMLSchema-instance" xsi:noNamespaceSchemaLocation="http://sumo-sim.org/xsd/duarouterConfiguration.xsd">

    <input>
        <net-file value="eichstaett.net.xml"/>
        <trip-files value="eichstaett.trips.xml"/>
    </input>

    <output>
        <output-file value="eichstaett.rou.xml"/>
    </output>

</configuration>
-->

<routes xmlns:xsi="http://www.w3.org/2001/XMLSchema-instance" xsi:noNamespaceSchemaLocation="http://sumo-sim.org/xsd/routes_file.xsd">
    <vehicle id="0" depart="0.00">
        <route edges="2814#1 2814#2 2814#3 2814#4 2814#5 2806#1 2641#2 3040#0 3040#1 2846#0 2846#1 2846#2 2846#3 2846#4 2846#5 2846#6 2846#7 2846#8 2846#10 2846#11 2846#12 2657#1 2657#2 -2657#2"/>
    </vehicle>
    <vehicle id="1" depart="0.10">
        <route edges="2657#0 -2846#12 -2846#11 -2846#10 -2846#8 -2846#7 -2846#6 -2707#2 -2986 2775#0 2775#1 2915#1 -2625#4 -2625#3 -2625#1 -2625#0 2625#0"/>
    </vehicle>
    <vehicle id="2" depart="0.20">
        <route edges="-2690#3 2690#3 2690#4 2690#5 2759#0 2759#1 2855#0 2855#1 2855#2 2855#3 2855#4 2855#5 2935#0 2935#1 2939#0 2939#1 2939#2 2939#3 2939#4 2939#5 -2879 -2830 -2695#2 -2695#1 2846#6 2847#0 2847#1 2847#2 2847#3 2847#4 2847#5 2847#6 -2881#3 -2875"/>
    </vehicle>
    <vehicle id="3" depart="0.30">
        <route edges="-2853 2853 -2980#2 -2980#1 -2980#0 2814#3 2814#4 2814#5 2806#1 2641#2 3040#0 3040#1 2846#0 2846#1 2846#2 2846#3 2846#4 2846#5 2846#6 2847#0 2847#1 2847#2 3013#0 3013#1"/>
    </vehicle>
    <vehicle id="4" depart="0.40">
        <route edges="-2788#1 2750 -2674#1"/>
    </vehicle>
    <vehicle id="5" depart="0.50">
        <route edges="2980#3 -2980#3 -2980#2 -2980#1"/>
    </vehicle>
    <vehicle id="6" depart="0.60">
        <route edges="-2934#3 2934#3 -2773#3 -2773#2 -2773#1 -2846#8 -2846#7 -2846#6 2695#1 -2797#2 -2797#1 -2797#0 3016 2966#0"/>
    </vehicle>
    <vehicle id="7" depart="0.70">
        <route edges="2782#1 -2782#1 2963 2625#3 2625#4 -2915#1 -2775#1 -2775#0 2986 2707#2 2846#6 2846#7 2846#8 2846#10 2846#11 2846#12 2657#1 2722 2883 2910 2795#0 -2664#5 -2746#1"/>
    </vehicle>
    <vehicle id="8" depart="0.80">
        <route edges="-2841#1 2841#1 2841#2 2884#0 2846#3 2846#4 2846#5 2846#6 2846#7 2846#8 2846#10 2846#11 2846#12 2657#1 2722 2883 2910 2795#0 -2664#5 -2664#4 -2664#3 -2664#2 -2664#0"/>
    </vehicle>
    <vehicle id="9" depart="0.90">
        <route edges="2820 2814#0 2814#1 2814#2 2814#3 2814#4 2814#5 -2623 -2624#1 -2624#0 -2733#1 3035 2702#0 2961 2927 -2927"/>
    </vehicle>
    <vehicle id="10" depart="1.00">
        <route edges="2833 2853 -2980#2 -2980#1 -2980#0 2814#3 2814#4 2814#5 2806#1 2641#2 3040#0 3040#1 2846#0 2846#1 2846#2 -2884#0 -2841#2 -2949 -2835#1 -2835#0 2748"/>
    </vehicle>
    <vehicle id="11" depart="1.10">
        <route edges="-2674#1 -2674#0 -2814#6 -2623 2627 -2799#2 -2676"/>
    </vehicle>
    <vehicle id="12" depart="1.20">
        <route edges="2645#0 -2645#0 2747#3 -2870#5 -2870#4 -2870#3 -2870#2 -2870#1 -2870#0 -2795#2 -2795#1 -2795#0 -2910 -2883 -2722 -2657#1 -2846#12 -2846#11 -2846#10 -2846#8 -2846#7 -2846#6 -2846#5 -2846#4 -2846#3 -2846#2 -2846#1 -2846#0 -3040#1 -3040#0 2641#0 2641#1 -2806#1 -2623 2627 2799#3 2799#4 2997#1 2997#2 -2997#2"/>
    </vehicle>
    <vehicle id="13" depart="1.30">
        <route edges="-2820 2820 2814#0 2814#1 2814#2 2814#3 2814#4 2814#5 2814#6 2674#0 2674#1 -2674#1"/>
    </vehicle>
    <vehicle id="14" depart="1.40">
        <route edges="-2814#1 2814#1 2814#2 2814#3 2814#4 2814#5 2806#1 2641#2 3040#0 3040#1 2846#0 2846#1 2846#2 2846#3 2846#4 2846#5 2846#6 2846#7 2846#8 2846#10 2846#11 2846#12"/>
    </vehicle>
    <vehicle id="15" depart="1.50">
        <route edges="2723 2788#0 -2846#2 -2846#1 -2846#0 -3040#1 -3040#0 2641#0 2641#1 -2806#1 -2814#5 -2814#4 -2814#3 -2814#2 -2814#1 -2814#0 -2820"/>
    </vehicle>
    <vehicle id="16" depart="1.60">
        <route edges="2625#1 2625#3 2625#4 -2915#1 -2775#1 -2775#0 -2999#1 -3005 -2847#3 3013#0 3013#1 -2773#3 -2926#3"/>
    </vehicle>
    <vehicle id="17" depart="1.70">
        <route edges="-2962#1 -2962#0 -2809#1 -2809#0 -2870#6 -2870#5 -2870#4 -2870#3 -2870#2 -2870#1 -2870#0 -2795#2 -2795#1 -2795#0 -2910 -2883 -2722 -2657#1 -2846#12 -2846#11 -2846#10 -2846#8 -2846#7 -2846#6 -2707#2 -2986 -3017#1 -3017#0 2630#1"/>
    </vehicle>
    <vehicle id="18" depart="1.80">
        <route edges="-2818 -2870#2 -2870#1 -2870#0 -2795#2 -2795#1 -2795#0 2967#0 2967#1 2967#2 2967#3 2967#4 2706#0 2706#1 2706#2 2706#3 2706#4 2743#0 -2851#1 -2851#0 -2766 -2785#2 -2785#1 -2785#0 2732#8 -2673 -2990#1 2862#0 2862#1 -2679"/>
    </vehicle>
    <vehicle id="19" depart="1.90">
        <route edges="-2674#0 -2814#6 2806#1 2641#2 3040#0 3040#1 2846#0 2846#1 2846#2 2846#3 2846#4 2846#5 2868#0"/>
    </vehicle>
    <vehicle id="20" depart="2.00">
        <route edges="-2980#1 -2980#0 2814#3 2814#4 2814#5 -2623 -2624#1 -2624#0 2690#0 2690#1 2690#2 2690#3 2690#4 2690#5 2759#0 2759#1 2855#0 2855#1 2855#2 -2855#2"/>
    </vehicle>
    <vehicle id="21" depart="2.10">
        <route edges="-2665#1 -2665#0 -2741#2 -2741#1 -2741#0 -2732#8 -2732#7 -2732#6 2894#0 2894#1 2894#2 2920 2686#1 2686#3 2686#4 2686#5 -2879 -2830 -2695#2 -2695#1 2846#6 2846#7 2846#8 2846#10 2846#11 2846#12 2657#1 2684#0"/>
    </vehicle>
    <vehicle id="22" depart="2.20">
        <route edges="-2848 2848 -2667#1 3004#0 3004#1 -2795#2 -2795#1 -2795#0 2967#0 2967#1 2967#2 2967#3 -2967#3"/>
    </vehicle>
    <vehicle id="23" depart="2.30">
        <route edges="2793#0 -2793#0 2849 -2846#3 -2884#0 -2841#2 -2841#1 -2841#0 -2759#1 -2759#0 -2690#5 2754"/>
    </vehicle>
    <vehicle id="24" depart="2.40">
        <route edges="2980#0 -2980#0 2814#3 2814#4 2814#5 2806#1 2641#2 3040#0 3040#1 2846#0 2846#1 2846#2 2846#3 2846#4 2846#5 -2707#2 -2986 2775#0 2775#1 2915#1"/>
    </vehicle>
    <vehicle id="25" depart="2.50">
        <route edges="-2618 3004#1 -2795#2 -2795#1 -2795#0 2967#0 2967#1 2967#2 2967#3"/>
    </vehicle>
    <vehicle id="26" depart="2.60">
        <route edges="-2962#0 -2809#1 -2809#0 -2870#6 -2870#5 -2870#4 -2870#3 -2870#2 -2870#1 -2870#0 -2795#2 -2795#1 -2795#0 -2910 -2883 -2722 -2657#1 -2846#12 -2846#11 -2846#10 -2846#8 -2846#7 -2846#6 -2846#5 -2846#4 -2846#3 -2846#2 -2846#1 -2846#0 -3040#1 -3040#0 2641#0 2641#1 -2806#1 -2623 2627 -2799#2 2799#2"/>
    </vehicle>
    <vehicle id="27" depart="2.70">
        <route edges="-2625#1 2625#1 2625#3 2625#4 -2915#1 -2775#1 -2775#0 2986 2707#2 -2846#5 -2846#4 -2846#3 -2884#0 -2841#2 -2949 2781#0"/>
    </vehicle>
    <vehicle id="28" depart="2.80">
        <route edges="-2657#0 2657#0 -2846#12 -2846#11 -2846#10 -2846#8 -2846#7 -2846#6 -2846#5 -2846#4 -2846#3 -2846#2 -2846#1 -2846#0"/>
    </vehicle>
    <vehicle id="29" depart="2.90">
        <route edges="2959 -2690#2 -2690#1 -2690#0 2624#0 -3045"/>
    </vehicle>
    <vehicle id="30" depart="3.00">
        <route edges="-2960#4 2960#4 2960#5 2960#6 -2631#2 -2631#1 -2631#0 2777#0 2777#1 2777#2 -2855#3 -2748 2835#0"/>
    </vehicle>
    <vehicle id="31" depart="3.10">
        <route edges="2691#5 2691#6 2923 2759#0 2759#1 2841#0 2841#1 2841#2 2884#0 -2846#2"/>
    </vehicle>
    <vehicle id="32" depart="3.20">
        <route edges="-2907 -2742#0 -2846#11 -2846#10 -2846#8 -2846#7 -2846#6 -2846#5 -2846#4 -2846#3 -2846#2 -2846#1 -2846#0 -3040#1 -3040#0 2641#0 2641#1 -2806#1 -2623 2627 2799#3 -2799#3"/>
    </vehicle>
    <vehicle id="33" depart="3.30">
        <route edges="2664#5 2795#1 2795#2 2870#0 2870#1 2870#2 2870#3 2870#4 2870#5 -2747#3 -2747#2 -2747#1"/>
    </vehicle>
    <vehicle id="34" depart="3.40">
        <route edges="-2962#1 -2962#0 -2809#1 -2809#0 -2870#6 -2870#5 -2870#4 -2870#3 -2870#2 -2870#1 -2870#0 -3004#1 -3004#0 2667#1 2667#2"/>
    </vehicle>
    <vehicle id="35" depart="3.50">
        <route edges="-2789#0 -2716 -2795#2 -2795#1 -2795#0 -2910 -2883 -2722 -2657#1 -2846#12 -2846#11 -2846#10 -2846#8 -2846#7 -2846#6 2695#1 2695#2 2830 2879 -2939#5 -2939#4 -2939#3 -2939#2 -2939#1 -2939#0 -2935#1 -2935#0 2732#0 2992 -2777#0 2631#0 2734 -2960#5 3036#0 3036#1 3036#2 2772 -2772"/>
    </vehicle>
    <vehicle id="36" depart="3.60">
        <route edges="2717 -2717 -2841#0 -2759#1 -2759#0 -2923 2960#0 -2960#0"/>
    </vehicle>
    <vehicle id="37" depart="3.70">
        <route edges="2833 2853 -2980#2 -2980#1 -2980#0 2814#3 2814#4 2814#5 -2623 -2624#1 -2624#0 2690#0 2690#1 2690#2 2690#3 2690#4 2690#5 2759#0 2759#1 2855#0 2855#1 2855#2 2855#3 -2777#2 -2777#1 -2992 2732#1 2732#2 2732#3 2732#4 2894#0 2894#1 2894#2 2920 2686#1 2686#3 2686#4 2686#5"/>
    </vehicle>
    <vehicle id="38" depart="3.80">
        <route edges="2690#0 2690#1 2690#2 2690#3 2690#4 2690#5 2759#0 2759#1 2841#0 2717 -2717"/>
    </vehicle>
    <vehicle id="39" depart="3.90">
        <route edges="2706#1 -2706#1 -2706#0 2706#0"/>
    </vehicle>
    <vehicle id="40" depart="4.00">
        <route edges="-3036#0 2960#5 2960#6 -2631#2 -2631#1 -2631#0 2777#0 2777#1 2622 -2622"/>
    </vehicle>
    <vehicle id="41" depart="4.10">
        <route edges="-2698#0 -2870#6 -2870#5 -2870#4 -2870#3 -2870#2 2704 -2704"/>
    </vehicle>
    <vehicle id="42" depart="4.20">
        <route edges="2712#3 -2712#3 -2712#2 -2712#1 -2712#0 2846#14 2840 2706#0 2878#0 2878#1 2891#1"/>
    </vehicle>
    <vehicle id="43" depart="4.30">
        <route edges="-2926#1 2926#1 2926#2 2926#3 -2773#2 -2773#1 -2846#8 -2846#7 -2846#6 2695#1 2695#2 2830 2879 -2939#5 -2939#4 -2939#3 -2939#2 -2939#1 -2939#0 -2935#1 -2935#0 -2855#5 -2855#4 -2855#3 -2855#2 -2855#1 -2855#0 -2759#1 -2759#0 -2923 2960#0"/>
    </vehicle>
    <vehicle id="44" depart="4.40">
        <route edges="2946#1 2946#2 2657#2"/>
    </vehicle>
    <vehicle id="45" depart="4.50">
        <route edges="2821 -2821 -2840 -2846#14 -2846#13 -2846#12 -2846#11 -2846#10 -2846#8 -2846#7 -2846#6 -2846#5 -2846#4 -2846#3 -2846#2 -2846#1 -2846#0 -3040#1 -3040#0 2641#0 2641#1 -2806#1 -2814#5 -2814#4 2860 -2693"/>
    </vehicle>
    <vehicle id="46" depart="4.60">
        <route edges="-3036#4 -3036#3 -3036#2 -3036#1 -3036#0 -2960#4 -2960#3 -2960#2 -2960#1 -2960#0 -2691#6 -2691#5 -2691#4 2711#0 2651 2832#1 -2690#2 -2690#1 -2690#0 2624#0 2624#1 2623 -2814#5 -2814#4 2708 2833"/>
    </vehicle>
    <vehicle id="47" depart="4.70">
        <route edges="-2926#3 2926#3 -2773#2 -2773#1 2846#10 2846#11 2846#12 2657#1 2722 2883 2910 2795#0 2795#1 2795#2 2870#0 2870#1 2870#2 2870#3 2870#4 2870#5 2870#6 2809#0 2815#0 -2645#1"/>
    </vehicle>
    <vehicle id="48" depart="4.80">
        <route edges="2917#2 -2917#2 -2917#0 2691#3 2711#0 2711#1 2690#4 2690#5 2759#0 2759#1 2855#0 2855#1 2855#2 2855#3 2855#4 2855#5 2935#0 2935#1 2939#0 2939#1 2939#2 2939#3 2939#4 2939#5 -2879 -2830 -2695#2 -2695#1 2846#6 2846#7 2846#8 2773#1 2773#2 -2926#3 -2926#2 -3039#1 -3039#0 2763#1"/>
    </vehicle>
    <vehicle id="49" depart="4.90">
        <route edges="-2625#3 2625#3 2625#4 -2915#1 -2775#1 -2775#0 2986 2707#2 2846#6 2846#7 2846#8 2846#10 2846#11 2846#12 2657#1 2722 2883 2910 2795#0 2795#1 2795#2 2870#0 2870#1 2870#2 2870#3 2870#4 2870#5 -2747#3 2645#0 2645#1"/>
    </vehicle>
    <vehicle id="50" depart="5.00">
        <route edges="-2846#3 -2884#0 -2841#2 -2841#1 -2841#0 -2759#1 -2759#0 -2923 -2691#6 2720 -2720"/>
    </vehicle>
    <vehicle id="51" depart="5.10">
        <route edges="-2933#1 2881#2 2881#3 -2847#6 -2847#5 -2822 3013#1 -2773#3 -2773#2 -2773#1 2846#10 2846#11 2846#12 2657#1 2722 2883 2910 2795#0 2795#1 2795#2 2870#0 2870#1 2870#2 2870#3 2870#4 2870#5 -2747#3 -2747#2 -2747#1"/>
    </vehicle>
    <vehicle id="52" depart="5.20">
        <route edges="2840 -2840 -2846#14 -2846#13 -2846#12 -2846#11 -2846#10 -2846#8 -2846#7 -2846#6 2723"/>
    </vehicle>
    <vehicle id="53" depart="5.30">
        <route edges="-2788#1 2846#3 2846#4 2846#5 2695#1 2695#2 2830 2879 -2939#5 2944#0"/>
    </vehicle>
    <vehicle id="54" depart="5.40">
        <route edges="2933#1 3033 2875 2881#3 -2847#6 -2847#5 -2822 3013#1 -2773#3 -2773#2 -2773#1 2846#10 2846#11 2846#12 2657#1 2657#2"/>
    </vehicle>
    <vehicle id="55" depart="5.50">
        <route edges="2733#1 2624#0 2624#1 2623 -2814#5 -2814#4 2708 2833"/>
    </vehicle>
    <vehicle id="56" depart="5.60">
        <route edges="2967#3 2967#4 -2840 -2846#14 -2846#13 -2846#12 -2846#11 -2846#10 -2846#8 -2846#7 -2846#6 -2846#5 -2846#4 -2846#3 -2846#2 -2846#1 -2846#0 -3040#1 -3040#0 2641#0 2641#1 -2806#1 -2814#5 -2814#4 2860 2670 2781#2"/>
    </vehicle>
    <vehicle id="57" depart="5.70">
        <route edges="-2665#1 -2665#0 -2741#2 -2990#2 -2990#1 -2990#0 -2631#3 -2631#2 -2631#1 -2631#0 2777#0 2777#1 2777#2 -2855#3 -2855#2 -2855#1 -2855#0 2841#0 2717 -2717"/>
    </vehicle>
    <vehicle id="58" depart="5.80">
        <route edges="-2770 2625#3 2625#4 -2915#1 -2775#1 -2775#0 2986 2707#2 -2846#5 -2846#4 -2846#3 -2846#2 -2846#1 -2846#0 -3040#1 -3040#0 2641#0 2641#1 -2806#1 -2814#5 -2814#4 -2814#3 -2814#2 -2814#1 2814#1"/>
    </vehicle>
    <vehicle id="59" depart="5.90">
        <route edges="-2980#0 2814#3 2814#4 2814#5 2806#1 2641#2 3040#0 3040#1 2846#0 2846#1 2846#2 -2884#0 -2841#2 -2841#1"/>
    </vehicle>
    <vehicle id="60" depart="6.00">
        <route edges="2934#3 -2773#3 -2773#2 -2773#1 2846#10 2846#11 2846#12 -2657#0"/>
    </vehicle>
    <vehicle id="61" depart="6.10">
        <route edges="3036#5 -3036#5 -3036#4 -2862#2 -2862#1 -2862#0 2990#1 2673 -2732#8 -2732#7"/>
    </vehicle>
    <vehicle id="62" depart="6.20">
        <route edges="-2967#3 2967#3 2967#4 2706#0 2706#1 2706#2 2706#3 2706#4 2743#0 -2851#1 -2851#0 -2766 -2785#2 -2785#1 -2785#0 -2732#7 -2732#6 -2732#4 -2732#3 -2732#2 -2732#1 2992 2777#1 2777#2 -2855#3 -2855#2 -2855#1 -2855#0 -2759#1 -2759#0 -2690#5 -2690#4 -2690#3 -2690#2 -2690#1 -2690#0 -2733#1 2733#1"/>
    </vehicle>
    <vehicle id="63" depart="6.30">
        <route edges="3008 -2846#8 -2846#7 -2846#6 2695#1 2695#2 2830 2879 -2939#5 -2939#4 -2939#3 -2939#2 -2939#1 -2939#0 -2935#1 -2935#0 -2855#5 -2855#4 -2855#3 -2855#2 -2855#1 -2855#0 -2759#1 -2759#0 -2690#5 -2690#4 -2690#3 -2690#2 -2842 -2932#2 -2932#1"/>
    </vehicle>
    <vehicle id="64" depart="6.40">
        <route edges="-2862#2 -2862#1 -2862#0 2990#1 2673 -2732#8 -2732#7 -2732#6 2894#0 2894#1 2894#2 2920 2686#1 2686#3 2686#4 2686#5 -2879 -2830 -2695#2 -2695#1 2846#6 2846#7 2846#8 2846#10 2846#11 2846#12 2657#1 2722 2883 2910 2795#0 2795#1 2795#2 2870#0 2870#1 2870#2 2870#3 2870#4 2870#5 2989 2638 2629 2699 -2699"/>
    </vehicle>
    <vehicle id="65" depart="6.50">
        <route edges="-2796#1 -2846#8 -2846#7 -2846#6 2695#1 2695#2 2830 2879 -2939#5 -2939#4 -2939#3 -2939#2 -2939#1 -2939#0 3000 2845 2748"/>
    </vehicle>
    <vehicle id="66" depart="6.60">
        <route edges="-2705#2 2705#2 2935#0 2935#1 2939#0 2939#1 2939#2 2939#3 2939#4 2939#5 -2879 -2830 -2695#2 -2695#1 2846#6 2846#7 2846#8 2846#10 2846#11 2846#12 -2657#0"/>
    </vehicle>
    <vehicle id="67" depart="6.70">
        <route edges="2752 -2752 -2712#0 -2846#13 2657#1 2722 2883 2910 2795#0 2795#1 2795#2 2870#0 2870#1 2870#2 2870#3 2870#4 2870#5 2989 -3003 -2789#1"/>
    </vehicle>
    <vehicle id="68" depart="6.80">
        <route edges="-2630#0 -3005 -2847#3 -2847#2 -2847#1 -2847#0 2846#7 2846#8 2846#10 2846#11 2846#12 2846#13 2846#14 2840 -2967#4 -2967#3"/>
    </vehicle>
    <vehicle id="69" depart="6.90">
        <route edges="2657#0 2657#1 2722 2883 2910 2795#0 2795#1 2795#2 2870#0 2870#1 2704 -2704"/>
    </vehicle>
    <vehicle id="70" depart="7.00">
        <route edges="2809#1 -2809#1 -2809#0 -2870#6 -2870#5 -2870#4 -2870#3 -2870#2 -2870#1 -2870#0 -2795#2 -2795#1 -2795#0 2967#0 2967#1 2967#2 2967#3 2967#4 2706#0 2706#1 2706#2 2768 2640 2827#0 2827#1"/>
    </vehicle>
    <vehicle id="71" depart="7.10">
        <route edges="2907 -2773#1 -2846#8 -2846#7 -2846#6 -2846#5 -2846#4 -2846#3 -2884#0 -2841#2 -2949 2781#0"/>
    </vehicle>
    <vehicle id="72" depart="7.20">
        <route edges="2827#1 -2827#1 -2827#0 -2640 -2768 2706#3 2706#4 2743#0 -2851#1 -2851#0 -2766 -2785#2 -2785#1 -2785#0 2732#8 -2673 -2990#1 2862#0 2862#1 2862#2 3036#4 -3036#4"/>
    </vehicle>
    <vehicle id="73" depart="7.30">
        <route edges="2685 -2685 2641#1 2641#2 3040#0 3040#1 2846#0 2846#1 2846#2 2846#3 2846#4 2846#5 2846#6 2847#0 2847#1 2847#2 2847#3 2847#4 2847#5 2847#6 2847#7 -2847#7"/>
    </vehicle>
    <vehicle id="74" depart="7.40">
        <route edges="-2990#2 2673 2741#0"/>
    </vehicle>
    <vehicle id="75" depart="7.50">
        <route edges="-2777#0 2777#0 2777#1 2777#2 -2855#3 -2855#2 -2855#1 -2855#0 2841#0 2841#1 2841#2 2884#0 2846#3"/>
    </vehicle>
    <vehicle id="76" depart="7.60">
        <route edges="-2847#4 -2847#3 -2847#2 -2847#1 -2847#0 -2846#6 2695#1 2695#2 2830 2879 -2939#5 -2939#4 -2939#3 -2939#2 -2939#1 -2939#0 3000 2845 -2808"/>
    </vehicle>
    <vehicle id="77" depart="7.70">
        <route edges="2966#0 2966#1 -2752 -2712#0 -2846#13 -2846#12 -2846#11 -2846#10 -2846#8 -2846#7 -2846#6 2695#1 2695#2 2830 2879 -2939#5 2939#5"/>
    </vehicle>
    <vehicle id="78" depart="7.80">
        <route edges="-2693 2693 -2860 2814#4 2814#5 -2623 -2624#1 -2624#0 2690#0 2690#1 2690#2 2690#3 2690#4 2690#5 2759#0 2759#1 2855#0 2855#1 2855#2 2855#3 -2777#2 -2777#1 -2992 2732#1 2732#2 2732#3 2732#4 2894#0 2894#1 2894#2 2913#1 2913#2 -2743#3 -2743#2 -2743#1 -2743#0 -2706#4 -2706#3 -2706#2 -2706#1"/>
    </vehicle>
    <vehicle id="79" depart="7.90">
        <route edges="2809#2 -2809#2 -2809#1 -2809#0 -2870#6 -2870#5 -2870#4 -2870#3 -2870#2 -2870#1 -2870#0 -2795#2 -2795#1 -2795#0 -2910 -2883 -2722 -2657#1 -2846#12 -2846#11 -2846#10 -2846#8 -2846#7 -2846#6 -2707#2 -2986 2775#0 2775#1 2915#1 -2625#4 2881#0"/>
    </vehicle>
    <vehicle id="80" depart="8.00">
        <route edges="-2747#1 -2747#0 -2815#1 -2815#0 -2809#0 -2870#6 -2870#5 -2870#4 -2870#3 -2870#2 -2870#1 -2870#0 -2795#2 -2795#1 -2795#0 -2910 -2883 -2722 -2657#1 -2846#12 -2846#11 -2846#10 -2846#8 -2846#7 -2846#6 2695#1 2695#2 2830 2879 -2939#5 -2939#4 -2939#3 -2939#2 -2939#1 -2939#0 -2935#1 -2935#0 -2855#5 -2855#4 -2855#3 -2855#2 -2925"/>
    </vehicle>
    <vehicle id="81" depart="8.10">
        <route edges="-2930#1 -2930#0 2988#1 2690#0 2690#1 2690#2 2690#3 2690#4 2690#5 2759#0 2759#1 2855#0 2855#1 2855#2 2855#3 2855#4 2855#5 2935#0 2935#1 2939#0 2939#1 2939#2 2939#3 2939#4 2939#5 -2879 -2830 -2695#2 -2695#1 2846#6 2846#7 2846#8 2846#10 2846#11 2846#12 2657#1 2722 2883 2910"/>
    </vehicle>
    <vehicle id="82" depart="8.20">
        <route edges="2684#0 -2684#0 2722 2883 2910 2967#0 2967#1 2967#2 -2953 -2700#1 -2700#0"/>
    </vehicle>
    <vehicle id="83" depart="8.30">
        <route edges="2980#1 2980#2 -2914"/>
    </vehicle>
    <vehicle id="84" depart="8.40">
        <route edges="2792 -2797#0 -2712#3 -2712#2 -2712#1 -2712#0 -2846#13 2657#1 2657#2"/>
    </vehicle>
    <vehicle id="85" depart="8.50">
        <route edges="-2910 -2883 -2722 -2657#1 -2846#12 -2846#11 -2846#10 -2846#8 -2846#7 -2846#6 2695#1 2695#2 2830 2879 -2939#5 -2939#4 -2939#3 -2939#2 -2939#1 -2939#0 -2935#1 -2935#0 2732#0 2992 -2777#0 2631#0 2734 -2960#5 3036#0 3036#1 3036#2 3036#3 -2862#2 -2679"/>
    </vehicle>
    <vehicle id="86" depart="8.60">
        <route edges="-2638 -2989 2870#6 2809#0 2809#1 2962#0 2962#1"/>
    </vehicle>
    <vehicle id="87" depart="8.70">
        <route edges="-2695#2 -2797#2 -2797#1 -2797#0 3016 2966#0"/>
    </vehicle>
    <vehicle id="88" depart="8.80">
        <route edges="2890#1 2664#2 2664#3 2664#4 2664#5 -2795#0 2967#0 2967#1 2967#2 2967#3 2967#4 2706#0 2706#1"/>
    </vehicle>
    <vehicle id="89" depart="8.90">
        <route edges="2748 2855#3 -2777#2 -2777#1 -2777#0 2631#0 2631#1 2631#2 2631#3 2990#0 2990#1 2990#2 2741#2 2665#0 2665#1"/>
    </vehicle>
    <vehicle id="90" depart="9.00">
        <route edges="-2700#0 2700#0 2700#1 2953 -2967#2 -2967#1 -2967#0 2795#0 2795#1 2795#2 2870#0 2870#1 2870#2 2870#3 2870#4 2870#5 2989 2638 2629 -2629"/>
    </vehicle>
    <vehicle id="91" depart="9.10">
        <route edges="2820 2814#0 2814#1 2814#2 2814#3 2814#4 2814#5 2806#1 2641#2 3040#0 3040#1 2846#0 2846#1 2846#2 2846#3 2846#4 2846#5 2846#6 2846#7 2846#8 2773#1 2773#2 -2926#3 -2926#2 -2926#1 -2926#0 2985#1"/>
    </vehicle>
    <vehicle id="92" depart="9.20">
        <route edges="2750 -2750 -2884#0 -2841#2 -2841#1 -2841#0 2855#0 2855#1 2855#2 2855#3 -2777#2 -2777#1 -2992 2732#1 2732#2 2732#3 2732#4 2894#0 2894#1 2894#2 2913#1 2913#2 -2743#3 -2743#2 -2743#1 -2743#0 -2706#4 -2706#3 2768 2640 2827#0 -2974 -2644"/>
    </vehicle>
    <vehicle id="93" depart="9.30">
        <route edges="2737#3 2856 2946#2 -2657#1 -2846#12 -2846#11 -2846#10 -2846#8 -2846#7 -2846#6 2695#1 2695#2 2830 2879 -2813 -2736#2 -2736#1 -2736#0 2724"/>
    </vehicle>
    <vehicle id="94" depart="9.40">
        <route edges="2679 -2862#1 -2862#0 2990#1 2673 -2732#8 -2732#7 -2732#6 2894#0 2894#1 2894#2 2920 2686#1 2686#3 2686#4 2686#5 -2879 -2830 -2695#2 -2695#1 2846#6 2846#7 2846#8 2846#10 2846#11 2846#12 2657#1 2722 2883 2910 2795#0 -2664#5 -2746#1"/>
    </vehicle>
    <vehicle id="95" depart="9.50">
        <route edges="2702#0 2702#1 -3035 2733#1 2690#0 2690#1 2690#2 2690#3 2690#4 2690#5 2759#0 2759#1 2855#0 2855#1 2855#2 2855#3 2855#4 2855#5 2935#0 2935#1 2939#0 2939#1 2939#2 2939#3 2939#4 2939#5 -2879 -2830 -2695#2 -2695#1 -2707#2 -2986 2775#0 2775#1 2915#1 -2625#4 2881#0 -2881#0"/>
    </vehicle>
    <vehicle id="96" depart="9.60">
        <route edges="2741#2 -2741#2 -2741#1 -2741#0 -2732#8 -2732#7 -2732#6 2894#0 2894#1 2894#2 2920 2686#1 2686#3 2686#4 2686#5 -2879 -2830 -2695#2 -2695#1 2846#6 2846#7 2846#8 2846#10 2846#11 2742#0 2742#1 2742#2 -2742#2"/>
    </vehicle>
    <vehicle id="97" depart="9.70">
        <route edges="-3018#0 -2732#4 -2732#3 -2732#2 -2732#1 2992 2777#1 2777#2 -2855#3 -2855#2 -2855#1 -2855#0 -2759#1 -2759#0 -2690#5 -2690#4 -2690#3 -2690#2 -2690#1 -2690#0 2624#0 2624#1 2623 -2814#5 -2814#4 2860 2670 2781#2"/>
    </vehicle>
    <vehicle id="98" depart="9.80">
        <route edges="-2814#1 2814#1 2814#2 2814#3 2814#4 2814#5 -2623 -2624#1 -2624#0 2624#0"/>
    </vehicle>
    <vehicle id="99" depart="9.90">
        <route edges="-2706#4 2706#4 2743#0 2743#1 2743#2 2743#3 3002#0 3002#1 2686#0 2686#1 2686#3 2686#4 2686#5 -2879 -2830 -2695#2 -2695#1 -2846#5 -2846#4 -2846#3 -2846#2 -2846#1 -2846#0 -3040#1 -3040#0 2641#0 2641#1 -2806#1 -2814#5 -2814#4 -2814#3 2980#0 2980#1 2980#2 -2853"/>
    </vehicle>
    <vehicle id="100" depart="10.00">
        <route edges="2685 -2685 2641#1 2641#2 3040#0 3040#1 2846#0 2846#1 2846#2 -2884#0 -2841#2 -2841#1 -2841#0 2855#0 2855#1 2855#2 2855#3 -2777#2 -2777#1 -2992 2732#1 2732#2 2732#3 2732#4 2894#0 2894#1 2894#2 2913#1"/>
    </vehicle>
    <vehicle id="101" depart="10.10">
        <route edges="-3024 -2862#0 2990#1 2673 -2732#8 -2732#7 -2732#6 2894#0 2894#1 2894#2 2920 2686#1 2686#3 2686#4 2686#5 -2879 -2830 -2695#2"/>
    </vehicle>
    <vehicle id="102" depart="10.20">
        <route edges="2732#1 -2732#1 2992 2777#1 2777#2 -2855#3 -2855#2 -2855#1 -2855#0 -2759#1 -2759#0 -2690#5 -2690#4 -2690#3 -2690#2 -2690#1 -2690#0 -2733#1 3035 2702#0 2961 2927 2892#0 2680 -2680"/>
    </vehicle>
    <vehicle id="103" depart="10.30">
        <route edges="2899 2926#1 2926#2 2926#3 -2773#2 -2773#1 -2846#8 -2846#7 -2846#6 2695#1 2695#2 2830 2879 -2813 -2736#2 -2736#1 -2736#0 2905#2 2905#3 -2786#1 -2786#0 2732#3 2732#4 2732#6 2732#7 2732#8 3006"/>
    </vehicle>
    <vehicle id="104" depart="10.40">
        <route edges="2871 -2869#1 -2869#0 -2847#7 -2847#6 -2847#5 -2847#4 -2847#3 -2847#2 -2847#1 -2847#0 -2846#6 2695#1 2695#2 2830 2879 -2939#5 -2939#4 -2939#3 -2939#2 -2939#1 -2939#0 -2935#1 -2935#0 2732#0 2992 -2777#0 2631#0 2734 -2960#5 3036#0 3036#1 3036#2 2772 -2772"/>
    </vehicle>
    <vehicle id="105" depart="10.50">
        <route edges="2881#0 -2881#0 2625#4 -2915#1 -2775#1 -2775#0 2986 2707#2 2695#1 2695#2 2830 2879 -2939#5 -2939#4 -2939#3 -2939#2 -2939#1 -2939#0 -2935#1 -2935#0 -2855#5 -2855#4 -2855#3 -2855#2 -2855#1 -2855#0 -2759#1 -2759#0 -2690#5 -2690#4 -2690#3 -2690#2 -2690#1 -2690#0 -2733#1 3035 2702#0 2961 2927"/>
    </vehicle>
    <vehicle id="106" depart="10.60">
        <route edges="2915#0 -2775#1 -2775#0 2986 2707#2 -2846#5 -2846#4 -2846#3 -2846#2 -2846#1 -2846#0 -3040#1 -3040#0 2641#0 2641#1 -2806#1 -2814#5 -2814#4 -2814#3 2980#0"/>
    </vehicle>
    <vehicle id="107" depart="10.70">
        <route edges="2781#1 -2670 -2860 2814#4 2814#5 -2623 -2624#1 -2624#0 2690#0 2690#1 2690#2 -2959 2959"/>
    </vehicle>
    <vehicle id="108" depart="10.80">
        <route edges="-2723 2695#1 2695#2 2830 2879 -2939#5 -2939#4 -2939#3 -2939#2 -2939#1 -2939#0 -2935#1 -2935#0 -2855#5 -2855#4 -2855#3 -2855#2 -2855#1 2855#1"/>
    </vehicle>
    <vehicle id="109" depart="10.90">
        <route edges="2946#1 2946#2 -2657#1 -2846#12 -2846#11 -2846#10 -2846#8 -2846#7 -2846#6 2695#1 2695#2 2830 2879 -2939#5 -2939#4 -2939#3 -2939#2 -2939#1 -2939#0 -2935#1 -2935#0 -2855#5 -2855#4 -2855#3 -2855#2 -2855#1 -2855#0"/>
    </vehicle>
    <vehicle id="110" depart="11.00">
        <route edges="2871 -2869#1 -2869#0 -2847#7 -2847#6 -2847#5 -2847#4 -2847#3 -2847#2 -2847#1 -2847#0 -2846#6 -2846#5 -2846#4 -2846#3 -2846#2 -2846#1 -2846#0 -3040#1 -3040#0 2641#0 2641#1 -2806#1 -2814#5 -2814#4 -2814#3 2980#0 2980#1 2980#2 -2853 -2833"/>
    </vehicle>
    <vehicle id="111" depart="11.10">
        <route edges="-2778 -2828 -2629 -2638 -2989 -2747#3"/>
    </vehicle>
    <vehicle id="112" depart="11.20">
        <route edges="-2723 -2707#2 -2986 2775#0 2775#1 2915#1 -2625#4 2881#0 -2881#0"/>
    </vehicle>
    <vehicle id="113" depart="11.30">
        <route edges="2862#1 -2862#1 -2862#0 2990#1 2673 -2732#8 2785#0 2785#1 2785#2 2766 2851#0 2851#1 -2743#0 -2706#4 -2706#3 -2706#2"/>
    </vehicle>
    <vehicle id="114" depart="11.40">
        <route edges="2717 -2717 2841#1 2841#2 2884#0 2846#3 2846#4 2846#5 2846#6 2847#0 2847#1 2847#2 2847#3 2847#4 2847#5 -2859 -2687 -2771"/>
    </vehicle>
    <vehicle id="115" depart="11.50">
        <route edges="2836#1 2700#1 2953 2967#3 2967#4 -2840 -2846#14 -2846#13 -2846#12 -2846#11 -2846#10 -2846#8 -2846#7 -2846#6 2723"/>
    </vehicle>
    <vehicle id="116" depart="11.60">
        <route edges="2733#1 2690#0 2690#1 2690#2 2690#3 2690#4 2690#5 2759#0 2759#1 2855#0 2855#1 2855#2 2855#3 2855#4 2855#5 2935#0 2935#1 2939#0 2939#1 2939#2 2939#3 2939#4 2939#5 -2879 -2830 -2695#2 -2695#1 2846#6 2847#0 2847#1 2847#2 2847#3 2847#4 2847#5 2847#6"/>
    </vehicle>
    <vehicle id="117" depart="11.70">
        <route edges="2868#2 -2868#2 -2846#8 -2846#7 -2846#6 2695#1 2695#2 2830 2879 -2813 -2736#2 -2736#1 -2736#0 2905#2 2905#3 -2786#1 -2786#0 2732#3 2732#4 2732#6 2732#7 2732#8 -2673 -2990#1 -2990#0 2631#4"/>
    </vehicle>
    <vehicle id="118" depart="11.80">
        <route edges="2695#2 -2695#2 -2695#1 2846#6 2847#0 2847#1 2847#2 2847#3 2847#4 2847#5 2847#6 -2881#3 -2881#2 -2881#1"/>
    </vehicle>
    <vehicle id="119" depart="11.90">
        <route edges="-2665#0 -2741#2 -2741#1 -2741#0 -2732#8 -2732#7 -2732#6 2894#0 2894#1 2894#2 2920 2686#1 2686#3 2686#4 2686#5 -2879 -2830 -2695#2 -2695#1 2846#6 2846#7 2846#8 2846#10 2846#11 2846#12 2657#1 2722 2883 2910 2795#0 2795#1 2795#2"/>
    </vehicle>
    <vehicle id="120" depart="12.00">
        <route edges="2833 2853 -2980#2 -2980#1 -2980#0 2814#3 2814#4 2814#5 2806#1 2641#2 3040#0 3040#1 2846#0 2846#1 2846#2 2846#3 2846#4 2846#5 2846#6 2846#7 2846#8 2846#10 2846#11 2846#12 2657#1 2722 2883 2910 2795#0 2795#1 2795#2 2870#0 2870#1 2870#2 2870#3 2870#4 2870#5 2870#6 2809#0 2809#1 2809#2 -2962#1"/>
    </vehicle>
    <vehicle id="121" depart="12.10">
        <route edges="2891#1 -2634#1 -2634#0 2706#2 2706#3 2706#4 2743#0 2743#1 2743#2 2743#3 3002#0 3002#1 2686#0 2686#1 2686#3 2686#4 2686#5 -2879 -2830 -2695#2 -2695#1 -2846#5 -2846#4 -2846#3 2788#1"/>
    </vehicle>
    <vehicle id="122" depart="12.20">
        <route edges="2960#0 2960#1 2960#2 2960#3 2960#4 2960#5 2960#6 2631#3 2990#0 2990#1 2673 -2732#8 -2732#7 -2732#6 2894#0 2894#1 2894#2 2920 2686#1 2686#3 2686#4 2686#5 -2879 -2830 -2695#2 -2695#1 2846#6 2846#7 2846#8 2846#10 2846#11 2846#12 2657#1 2684#0 -2684#0"/>
    </vehicle>
    <vehicle id="123" depart="12.30">
        <route edges="-2882 2882 2805 -2773#2 -2773#1 -2846#8 -2846#7 -2846#6 2695#1 2695#2 2830 2879 -2939#5 -2939#4 -2939#3 -2939#2 -2939#1 -2939#0 -2935#1 -2935#0 -2855#5 -2855#4 -2855#3 -2855#2 -2855#1 -2855#0 -2759#1 -2759#0 -2690#5 -2690#4 -2690#3 -2690#2 -2690#1 -2690#0 -2988#1 2988#1"/>
    </vehicle>
    <vehicle id="124" depart="12.40">
        <route edges="2711#1 2690#4 2690#5 2759#0 2759#1 2855#0 2855#1 2855#2 2855#3 -2777#2 -2777#1 -2992 2732#1 2732#2 2732#3 2732#4 2894#0 2894#1 2894#2 2913#1 2913#2 -2743#3 -2743#2 -2743#1 -2743#0 -2706#4 -2706#3 -2706#2 -2706#1 -2706#0 -2967#4 -2967#3 -2967#2 -2636 2700#3"/>
    </vehicle>
    <vehicle id="125" depart="12.50">
        <route edges="2676 2799#2 -2627 2623 2806#1 2641#2 3040#0 3040#1 2846#0 2846#1 2846#2 2846#3 2846#4 2846#5 -2707#2 -2986 -3017#1 -3017#0"/>
    </vehicle>
    <vehicle id="126" depart="12.60">
        <route edges="-2741#1 -2741#0 -2673 -2990#1 -2990#0 -2631#3 -2631#2 -2631#1 -2631#0 2777#0 2777#1 2777#2 -2855#3 -2855#2 -2855#1 -2855#0 -2759#1 -2759#0 -2690#5 -2690#4 -2690#3 -2690#2 -2690#1 -2690#0 2624#0 2624#1 2623 -2814#5 -2814#4 2860 -2693"/>
    </vehicle>
    <vehicle id="127" depart="12.70">
        <route edges="-2809#1 -2809#0 -2870#6 -2870#5 -2870#4 -2870#3 -2870#2 -2870#1 -2870#0 -2795#2 -2795#1 -2795#0 -2910 -2883 -2722 -2657#1 -2846#12 -2846#11 -2846#10 -2846#8 -2846#7 -2846#6 2695#1 2695#2 2830 2879 -2879"/>
    </vehicle>
    <vehicle id="128" depart="12.80">