<?xml version="1.0" encoding="UTF-8"?>

<!-- generated on 02/19/14 14:59:15 by SUMO netgenerate Version 0.19.0
<?xml version="1.0" encoding="UTF-8"?>

<configuration xmlns:xsi="http://www.w3.org/2001/XMLSchema-instance" xsi:noNamespaceSchemaLocation="http://sumo-sim.org/xsd/netgenerateConfiguration.xsd">

    <random_network>
        <rand value="true"/>
        <rand.iterations value="20"/>
    </random_network>

    <output>
        <output-file value="rand20.net.xml"/>
    </output>

</configuration>
-->

<net version="0.13" xmlns:xsi="http://www.w3.org/2001/XMLSchema-instance" xsi:noNamespaceSchemaLocation="http://sumo-sim.org/xsd/net_file.xsd">

    <location netOffset="230.76,565.34" convBoundary="0.00,0.00,751.66,878.95" origBoundary="-230.76,-565.34,520.90,313.61" projParameter="!"/>

    <edge id=":1_0" function="internal">
        <lane id=":1_0_0" index="0" speed="13.90" length="5.38" shape="229.21,571.20 228.96,569.68 228.29,568.74 227.20,568.40 225.68,568.64"/>
    </edge>
    <edge id=":1_1" function="internal">
        <lane id=":1_1_0" index="0" speed="13.90" length="9.96" shape="229.21,571.20 228.10,561.30"/>
    </edge>
    <edge id=":1_2" function="internal">
        <lane id=":1_2_0" index="0" speed="13.90" length="7.57" shape="229.21,571.20 229.57,567.90 230.78,565.58 232.15,564.69"/>
    </edge>
    <edge id=":1_3" function="internal">
        <lane id=":1_3_0" index="0" speed="13.90" length="2.41" shape="229.21,571.20 230.01,569.95 230.83,569.53"/>
    </edge>
    <edge id=":1_16" function="internal">
        <lane id=":1_16_0" index="0" speed="13.90" length="3.76" shape="232.15,564.69 232.84,564.24 235.75,563.88"/>
    </edge>
    <edge id=":1_17" function="internal">
        <lane id=":1_17_0" index="0" speed="13.90" length="2.41" shape="230.83,569.53 231.66,569.93 232.51,571.15"/>
    </edge>
    <edge id=":1_4" function="internal">
        <lane id=":1_4_0" index="0" speed="13.90" length="5.81" shape="235.63,567.17 234.24,567.38 233.25,568.11 232.68,569.37 232.51,571.15"/>
    </edge>
    <edge id=":1_5" function="internal">
        <lane id=":1_5_0" index="0" speed="13.90" length="10.15" shape="235.63,567.17 232.64,567.11 230.57,567.28 228.54,567.76 225.68,568.64"/>
    </edge>
    <edge id=":1_6" function="internal">
        <lane id=":1_6_0" index="0" speed="13.90" length="10.35" shape="235.63,567.17 232.84,566.72 230.66,565.59 229.08,563.78 228.10,561.30"/>
    </edge>
    <edge id=":1_7" function="internal">
        <lane id=":1_7_0" index="0" speed="13.90" length="4.82" shape="235.63,567.17 234.42,566.30 234.04,565.46 234.48,564.65 235.75,563.88"/>
    </edge>
    <edge id=":1_8" function="internal">
        <lane id=":1_8_0" index="0" speed="13.90" length="6.03" shape="231.31,560.53 231.87,561.94 232.80,562.97 234.10,563.61 235.75,563.88"/>
    </edge>
    <edge id=":1_9" function="internal">
        <lane id=":1_9_0" index="0" speed="13.90" length="10.72" shape="231.31,560.53 231.98,563.54 232.31,565.79 232.45,568.07 232.51,571.15"/>
    </edge>
    <edge id=":1_10" function="internal">
        <lane id=":1_10_0" index="0" speed="13.90" length="7.68" shape="231.31,560.53 231.49,563.26 230.61,565.52 228.76,567.23"/>
    </edge>
    <edge id=":1_11" function="internal">
        <lane id=":1_11_0" index="0" speed="13.90" length="2.41" shape="231.31,560.53 230.79,561.93 230.09,562.52"/>
    </edge>
    <edge id=":1_18" function="internal">
        <lane id=":1_18_0" index="0" speed="13.90" length="3.40" shape="228.76,567.23 228.67,567.32 225.68,568.64"/>
    </edge>
    <edge id=":1_19" function="internal">
        <lane id=":1_19_0" index="0" speed="13.90" length="2.41" shape="230.09,562.52 229.19,562.31 228.10,561.30"/>
    </edge>
    <edge id=":1_12" function="internal">
        <lane id=":1_12_0" index="0" speed="13.90" length="6.02" shape="224.70,565.49 226.45,564.75 227.60,563.81 228.15,562.66 228.10,561.30"/>
    </edge>
    <edge id=":1_13" function="internal">
        <lane id=":1_13_0" index="0" speed="13.90" length="11.25" shape="224.70,565.49 227.74,564.59 230.14,564.06 232.59,563.84 235.75,563.88"/>
    </edge>
    <edge id=":1_14" function="internal">
        <lane id=":1_14_0" index="0" speed="13.90" length="11.91" shape="224.70,565.49 228.07,564.95 230.49,565.72 231.97,567.78 232.51,571.15"/>
    </edge>
    <edge id=":1_15" function="internal">
        <lane id=":1_15_0" index="0" speed="13.90" length="4.82" shape="224.70,565.49 226.12,565.91 226.76,566.58 226.61,567.49 225.68,568.64"/>
    </edge>
    <edge id=":10_0" function="internal">
        <lane id=":10_0_0" index="0" speed="13.90" length="4.82" shape="68.96,617.27 67.54,616.85 66.90,616.19 67.05,615.28 67.98,614.12"/>
    </edge>
    <edge id=":115_0" function="internal">
        <lane id=":115_0_0" index="0" speed="13.90" length="10.30" shape="395.78,246.21 398.59,247.26 400.03,248.86 400.10,251.01 398.79,253.71"/>
    </edge>
    <edge id=":115_1" function="internal">
        <lane id=":115_1_0" index="0" speed="13.90" length="2.41" shape="395.78,246.21 396.81,247.28 397.03,248.18"/>
    </edge>
    <edge id=":115_4" function="internal">
        <lane id=":115_4_0" index="0" speed="13.90" length="2.41" shape="397.03,248.18 396.45,248.89 395.07,249.43"/>
    </edge>
    <edge id=":115_2" function="internal">
        <lane id=":115_2_0" index="0" speed="13.90" length="3.36" shape="396.05,251.88 396.48,251.00 396.45,250.30 395.98,249.78 395.07,249.43"/>
    </edge>
    <edge id=":115_3" function="internal">
        <lane id=":115_3_0" index="0" speed="13.90" length="2.41" shape="396.05,251.88 397.42,251.31 398.34,251.43"/>
    </edge>
    <edge id=":115_5" function="internal">
        <lane id=":115_5_0" index="0" speed="13.90" length="2.41" shape="398.34,251.43 398.80,252.23 398.79,253.71"/>
    </edge>
    <edge id=":118_0" function="internal">
        <lane id=":118_0_0" index="0" speed="13.90" length="4.82" shape="0.54,244.68 -0.90,244.30 -1.56,243.66 -1.44,242.75 -0.54,241.56"/>
    </edge>
    <edge id=":12_0" function="internal">
        <lane id=":12_0_0" index="0" speed="13.90" length="14.55" shape="308.81,396.33 306.37,393.59 303.57,391.35 300.46,389.52 297.09,388.01"/>
    </edge>
    <edge id=":12_1" function="internal">
        <lane id=":12_1_0" index="0" speed="13.90" length="16.21" shape="308.81,396.33 306.62,393.06 304.58,389.43 302.77,385.67 301.25,382.03"/>
    </edge>
    <edge id=":12_2" function="internal">
        <lane id=":12_2_0" index="0" speed="13.90" length="9.79" shape="308.81,396.33 307.04,392.96 306.57,389.38 307.07,387.06"/>
    </edge>
    <edge id=":12_3" function="internal">
        <lane id=":12_3_0" index="0" speed="13.90" length="7.92" shape="308.81,396.33 306.99,392.81 307.33,390.07 308.27,389.32"/>
    </edge>
    <edge id=":12_4" function="internal">
        <lane id=":12_4_0" index="0" speed="13.90" length="2.41" shape="308.81,396.33 308.73,394.84 309.15,394.02"/>
    </edge>
    <edge id=":12_25" function="internal">
        <lane id=":12_25_0" index="0" speed="13.90" length="6.09" shape="307.07,387.06 307.39,385.56 309.51,381.53"/>
    </edge>
    <edge id=":12_26" function="internal">
        <lane id=":12_26_0" index="0" speed="13.90" length="6.79" shape="308.27,389.32 309.83,388.08 314.47,386.86"/>
    </edge>
    <edge id=":12_27" function="internal">
        <lane id=":12_27_0" index="0" speed="13.90" length="2.41" shape="309.15,394.02 310.06,393.86 311.46,394.36"/>
    </edge>
    <edge id=":12_5" function="internal">
        <lane id=":12_5_0" index="0" speed="13.90" length="7.14" shape="314.95,390.13 312.49,390.72 311.08,391.62 310.74,392.84 311.46,394.36"/>
    </edge>
    <edge id=":12_6" function="internal">
        <lane id=":12_6_0" index="0" speed="13.90" length="18.12" shape="314.95,390.13 310.73,390.36 305.91,390.03 301.15,389.22 297.09,388.01"/>
    </edge>
    <edge id=":12_7" function="internal">
        <lane id=":12_7_0" index="0" speed="13.90" length="17.39" shape="314.95,390.13 310.34,390.17 306.52,388.84 303.49,386.13 301.25,382.03"/>
    </edge>
    <edge id=":12_8" function="internal">
        <lane id=":12_8_0" index="0" speed="13.90" length="15.81" shape="314.95,390.13 309.97,390.27 307.40,388.89 307.25,385.97 309.51,381.53"/>
    </edge>
    <edge id=":12_9" function="internal">
        <lane id=":12_9_0" index="0" speed="13.90" length="4.82" shape="314.95,390.13 313.61,389.49 313.08,388.73 313.37,387.86 314.47,386.86"/>
    </edge>
    <edge id=":12_10" function="internal">
        <lane id=":12_10_0" index="0" speed="13.90" length="6.44" shape="312.26,383.36 311.34,385.17 311.40,386.36 312.44,386.92 314.47,386.86"/>
    </edge>
    <edge id=":12_11" function="internal">
        <lane id=":12_11_0" index="0" speed="13.90" length="11.80" shape="312.26,383.36 310.62,386.43 309.93,389.29 310.21,391.93 311.46,394.36"/>
    </edge>
    <edge id=":12_12" function="internal">
        <lane id=":12_12_0" index="0" speed="13.90" length="17.37" shape="312.26,383.36 309.20,386.82 305.65,388.74 301.62,389.14 297.09,388.01"/>
    </edge>
    <edge id=":12_13" function="internal">
        <lane id=":12_13_0" index="0" speed="13.90" length="15.91" shape="312.26,383.36 309.07,387.02 306.18,388.02 303.57,386.36 301.25,382.03"/>
    </edge>
    <edge id=":12_14" function="internal">
        <lane id=":12_14_0" index="0" speed="13.90" length="4.82" shape="312.26,383.36 310.89,383.93 309.97,383.82 309.51,383.02 309.51,381.53"/>
    </edge>
    <edge id=":12_15" function="internal">
        <lane id=":12_15_0" index="0" speed="13.90" length="7.50" shape="304.33,380.85 305.43,382.90 306.66,383.70 308.02,383.24 309.51,381.53"/>
    </edge>
    <edge id=":12_16" function="internal">
        <lane id=":12_16_0" index="0" speed="13.90" length="12.88" shape="304.33,380.85 305.99,383.89 308.23,385.90 311.06,386.89 314.47,386.86"/>
    </edge>
    <edge id=":12_17" function="internal">
        <lane id=":12_17_0" index="0" speed="13.90" length="15.31" shape="304.33,380.85 305.78,384.37 307.45,387.85 309.34,391.21 311.46,394.36"/>
    </edge>
    <edge id=":12_18" function="internal">
        <lane id=":12_18_0" index="0" speed="13.90" length="8.56" shape="304.33,380.85 305.59,385.74 304.80,388.56 304.24,388.71"/>
    </edge>
    <edge id=":12_19" function="internal">
        <lane id=":12_19_0" index="0" speed="13.90" length="2.41" shape="304.33,380.85 304.01,382.30 303.39,382.98"/>
    </edge>
    <edge id=":12_28" function="internal">
        <lane id=":12_28_0" index="0" speed="13.90" length="7.40" shape="304.24,388.71 301.97,389.32 297.09,388.01"/>
    </edge>
    <edge id=":12_29" function="internal">
        <lane id=":12_29_0" index="0" speed="13.90" length="2.41" shape="303.39,382.98 302.47,382.89 301.25,382.03"/>
    </edge>
    <edge id=":12_20" function="internal">
        <lane id=":12_20_0" index="0" speed="13.90" length="6.48" shape="298.31,384.94 300.29,385.47 301.44,385.17 301.76,384.02 301.25,382.03"/>
    </edge>
    <edge id=":12_21" function="internal">
        <lane id=":12_21_0" index="0" speed="13.90" length="12.82" shape="298.31,384.94 301.66,385.78 304.64,385.49 307.26,384.07 309.51,381.53"/>
    </edge>
    <edge id=":12_22" function="internal">
        <lane id=":12_22_0" index="0" speed="13.90" length="16.42" shape="298.31,384.94 302.10,386.12 306.28,386.87 310.51,387.13 314.47,386.86"/>
    </edge>
    <edge id=":12_23" function="internal">
        <lane id=":12_23_0" index="0" speed="13.90" length="16.34" shape="298.31,384.94 301.91,386.63 305.51,388.84 308.80,391.45 311.46,394.36"/>
    </edge>
    <edge id=":12_24" function="internal">
        <lane id=":12_24_0" index="0" speed="13.90" length="4.82" shape="298.31,384.94 299.16,386.17 299.24,387.08 298.55,387.70 297.09,388.01"/>
    </edge>
    <edge id=":122_0" function="internal">
        <lane id=":122_0_0" index="0" speed="13.90" length="4.82" shape="671.21,353.10 672.39,352.19 673.30,352.06 673.95,352.71 674.34,354.15"/>
    </edge>
    <edge id=":124_0" function="internal">
        <lane id=":124_0_0" index="0" speed="13.90" length="9.18" shape="750.10,632.29 751.60,634.41 751.93,636.38 751.09,638.19 749.09,639.84"/>
    </edge>
    <edge id=":124_1" function="internal">
        <lane id=":124_1_0" index="0" speed="13.90" length="2.41" shape="750.10,632.29 750.36,633.76 750.04,634.62"/>
    </edge>
    <edge id=":124_4" function="internal">
        <lane id=":124_4_0" index="0" speed="13.90" length="2.41" shape="750.04,634.62 749.16,634.89 747.71,634.56"/>
    </edge>
    <edge id=":124_2" function="internal">
        <lane id=":124_2_0" index="0" speed="13.90" length="3.00" shape="747.38,637.02 748.03,636.48 748.30,635.89 748.19,635.25 747.71,634.56"/>
    </edge>
    <edge id=":124_3" function="internal">
        <lane id=":124_3_0" index="0" speed="13.90" length="2.41" shape="747.38,637.02 748.86,637.08 749.64,637.58"/>
    </edge>
    <edge id=":124_5" function="internal">
        <lane id=":124_5_0" index="0" speed="13.90" length="2.41" shape="749.64,637.58 749.72,638.49 749.09,639.84"/>
    </edge>
    <edge id=":127_0" function="internal">
        <lane id=":127_0_0" index="0" speed="13.90" length="4.82" shape="577.29,867.08 576.67,868.42 575.91,868.96 575.03,868.67 574.03,867.57"/>
    </edge>
    <edge id=":137_0" function="internal">
        <lane id=":137_0_0" index="0" speed="13.90" length="4.82" shape="379.58,880.30 378.10,880.33 377.29,879.89 377.16,878.98 377.70,877.59"/>
    </edge>
    <edge id=":14_0" function="internal">
        <lane id=":14_0_0" index="0" speed="13.90" length="7.07" shape="117.45,209.63 116.30,207.50 115.09,206.12 113.79,205.49 112.42,205.61"/>
    </edge>
    <edge id=":14_1" function="internal">
        <lane id=":14_1_0" index="0" speed="13.90" length="13.45" shape="117.45,209.63 116.33,205.77 116.91,203.13 119.22,201.71 123.23,201.52"/>
    </edge>
    <edge id=":14_2" function="internal">
        <lane id=":14_2_0" index="0" speed="13.90" length="4.82" shape="117.45,209.63 117.70,208.16 118.29,207.45 119.21,207.49 120.47,208.29"/>
    </edge>
    <edge id=":14_3" function="internal">
        <lane id=":14_3_0" index="0" speed="13.90" length="5.78" shape="122.95,204.80 121.23,204.89 120.24,205.50 119.98,206.63 120.47,208.29"/>
    </edge>
    <edge id=":14_4" function="internal">
        <lane id=":14_4_0" index="0" speed="13.90" length="10.69" shape="122.95,204.80 119.87,204.52 117.59,204.43 115.36,204.73 112.42,205.61"/>
    </edge>
    <edge id=":14_5" function="internal">
        <lane id=":14_5_0" index="0" speed="13.90" length="2.41" shape="122.95,204.80 121.79,203.88 121.45,203.02"/>
    </edge>
    <edge id=":14_9" function="internal">
        <lane id=":14_9_0" index="0" speed="13.90" length="2.41" shape="121.45,203.02 121.93,202.23 123.23,201.52"/>
    </edge>
    <edge id=":14_6" function="internal">
        <lane id=":14_6_0" index="0" speed="13.90" length="12.06" shape="111.34,202.49 114.49,201.58 117.19,201.23 119.94,201.26 123.23,201.52"/>
    </edge>
    <edge id=":14_7" function="internal">
        <lane id=":14_7_0" index="0" speed="13.90" length="7.45" shape="111.34,202.49 114.04,202.11 116.46,202.95 118.02,204.45"/>
    </edge>
    <edge id=":14_8" function="internal">
        <lane id=":14_8_0" index="0" speed="13.90" length="2.41" shape="111.34,202.49 112.78,202.86 113.44,203.51"/>
    </edge>
    <edge id=":14_10" function="internal">
        <lane id=":14_10_0" index="0" speed="13.90" length="4.59" shape="118.02,204.45 118.60,205.01 120.47,208.29"/>
    </edge>
    <edge id=":14_11" function="internal">
        <lane id=":14_11_0" index="0" speed="13.90" length="2.41" shape="113.44,203.51 113.32,204.42 112.42,205.61"/>
    </edge>
    <edge id=":18_0" function="internal">
        <lane id=":18_0_0" index="0" speed="13.90" length="7.61" shape="624.62,504.31 623.50,503.63 621.92,503.45 619.88,503.79 617.38,504.63"/>
    </edge>
    <edge id=":18_1" function="internal">
        <lane id=":18_1_0" index="0" speed="13.90" length="10.51" shape="624.62,504.31 622.49,502.13 620.87,500.65 619.16,499.25 616.78,497.34"/>
    </edge>
    <edge id=":18_2" function="internal">
        <lane id=":18_2_0" index="0" speed="13.90" length="6.75" shape="624.62,504.31 623.35,502.39 622.77,500.05 622.85,498.02"/>
    </edge>
    <edge id=":18_3" function="internal">
        <lane id=":18_3_0" index="0" speed="13.90" length="2.41" shape="624.62,504.31 624.37,502.85 624.69,501.98"/>
    </edge>
    <edge id=":18_16" function="internal">
        <lane id=":18_16_0" index="0" speed="13.90" length="4.02" shape="622.85,498.02 622.88,497.28 623.68,494.10"/>
    </edge>
    <edge id=":18_17" function="internal">
        <lane id=":18_17_0" index="0" speed="13.90" length="2.41" shape="624.69,501.98 625.57,501.71 627.02,502.05"/>
    </edge>
    <edge id=":18_4" function="internal">
        <lane id=":18_4_0" index="0" speed="13.90" length="7.21" shape="626.81,495.15 626.20,497.43 626.03,499.33 626.31,500.87 627.02,502.05"/>
    </edge>
    <edge id=":18_5" function="internal">
        <lane id=":18_5_0" index="0" speed="13.90" length="13.80" shape="626.81,495.15 625.39,498.21 623.34,500.81 620.67,502.95 617.38,504.63"/>
    </edge>
    <edge id=":18_6" function="internal">
        <lane id=":18_6_0" index="0" speed="13.90" length="12.98" shape="626.81,495.15 625.15,498.33 622.93,499.75 620.14,499.42 616.78,497.34"/>
    </edge>
    <edge id=":18_7" function="internal">
        <lane id=":18_7_0" index="0" speed="13.90" length="4.82" shape="626.81,495.15 625.63,496.06 624.72,496.19 624.07,495.53 623.68,494.10"/>
    </edge>
    <edge id=":18_8" function="internal">
        <lane id=":18_8_0" index="0" speed="13.90" length="6.13" shape="618.86,494.78 620.51,495.83 621.87,496.07 622.92,495.49 623.68,494.10"/>
    </edge>
    <edge id=":18_9" function="internal">
        <lane id=":18_9_0" index="0" speed="13.90" length="10.94" shape="618.86,494.78 621.29,496.73 623.11,498.23 624.84,499.82 627.02,502.05"/>
    </edge>
    <edge id=":18_10" function="internal">
        <lane id=":18_10_0" index="0" speed="13.90" length="7.96" shape="618.86,494.78 621.63,497.71 622.30,500.33 621.66,501.37"/>
    </edge>
    <edge id=":18_11" function="internal">
        <lane id=":18_11_0" index="0" speed="13.90" length="2.41" shape="618.86,494.78 619.30,496.20 619.10,497.10"/>
    </edge>
    <edge id=":18_18" function="internal">
        <lane id=":18_18_0" index="0" speed="13.90" length="5.52" shape="621.66,501.37 620.88,502.64 617.38,504.63"/>
    </edge>
    <edge id=":18_19" function="internal">
        <lane id=":18_19_0" index="0" speed="13.90" length="2.41" shape="619.10,497.10 618.26,497.48 616.78,497.34"/>
    </edge>
    <edge id=":18_12" function="internal">
        <lane id=":18_12_0" index="0" speed="13.90" length="5.79" shape="616.14,501.57 617.65,500.72 618.26,499.73 617.97,498.60 616.78,497.34"/>
    </edge>
    <edge id=":18_13" function="internal">
        <lane id=":18_13_0" index="0" speed="13.90" length="10.95" shape="616.14,501.57 618.79,500.23 620.93,498.53 622.56,496.49 623.68,494.10"/>
    </edge>
    <edge id=":18_14" function="internal">
        <lane id=":18_14_0" index="0" speed="13.90" length="11.54" shape="616.14,501.57 619.66,500.46 622.64,500.17 625.09,500.70 627.02,502.05"/>
    </edge>
    <edge id=":18_15" function="internal">
        <lane id=":18_15_0" index="0" speed="13.90" length="4.82" shape="616.14,501.57 617.60,501.88 618.29,502.49 618.22,503.41 617.38,504.63"/>
    </edge>
    <edge id=":2_0" function="internal">
        <lane id=":2_0_0" index="0" speed="13.90" length="4.78" shape="176.42,346.08 175.82,341.34"/>
    </edge>
    <edge id=":2_1" function="internal">
        <lane id=":2_1_0" index="0" speed="13.90" length="14.46" shape="176.42,346.08 175.94,341.68 177.05,339.11 179.75,338.38 184.04,339.48"/>
    </edge>
    <edge id=":2_2" function="internal">
        <lane id=":2_2_0" index="0" speed="13.90" length="2.41" shape="176.42,346.08 176.93,344.69 177.64,344.09"/>
    </edge>
    <edge id=":2_9" function="internal">
        <lane id=":2_9_0" index="0" speed="13.90" length="2.41" shape="177.64,344.09 178.54,344.30 179.63,345.31"/>
    </edge>
    <edge id=":2_3" function="internal">
        <lane id=":2_3_0" index="0" speed="13.90" length="6.06" shape="182.82,342.55 181.02,342.09 179.89,342.39 179.43,343.47 179.63,345.31"/>
    </edge>
    <edge id=":2_4" function="internal">
        <lane id=":2_4_0" index="0" speed="13.90" length="7.10" shape="182.82,342.55 175.82,341.34"/>
    </edge>
    <edge id=":2_5" function="internal">
        <lane id=":2_5_0" index="0" speed="13.90" length="4.82" shape="182.82,342.55 181.97,341.33 181.90,340.41 182.58,339.79 184.04,339.48"/>
    </edge>
    <edge id=":2_6" function="internal">
        <lane id=":2_6_0" index="0" speed="13.90" length="5.22" shape="178.84,340.01 184.04,339.48"/>
    </edge>
    <edge id=":2_7" function="internal">
        <lane id=":2_7_0" index="0" speed="13.90" length="5.36" shape="178.84,340.01 179.63,345.31"/>
    </edge>
    <edge id=":2_8" function="internal">
        <lane id=":2_8_0" index="0" speed="13.90" length="2.41" shape="178.84,340.01 178.59,341.47 178.00,342.18"/>
    </edge>
    <edge id=":2_10" function="internal">
        <lane id=":2_10_0" index="0" speed="13.90" length="2.41" shape="178.00,342.18 177.08,342.14 175.82,341.34"/>
    </edge>
    <edge id=":209_0" function="internal">
        <lane id=":209_0_0" index="0" speed="13.90" length="4.82" shape="689.81,822.63 690.51,823.94 690.48,824.86 689.73,825.40 688.25,825.54"/>
    </edge>
    <edge id=":24_0" function="internal">
        <lane id=":24_0_0" index="0" speed="13.90" length="6.63" shape="558.00,762.13 557.43,759.96 556.56,758.74 555.36,758.48 553.85,759.16"/>
    </edge>
    <edge id=":24_1" function="internal">
        <lane id=":24_1_0" index="0" speed="13.90" length="11.85" shape="558.00,762.13 557.51,758.89 556.98,756.26 556.09,753.76 554.51,750.93"/>
    </edge>
    <edge id=":24_2" function="internal">
        <lane id=":24_2_0" index="0" speed="13.90" length="15.42" shape="558.00,762.13 557.84,757.93 558.74,754.31 560.69,751.28 563.70,748.83"/>
    </edge>
    <edge id=":24_3" function="internal">
        <lane id=":24_3_0" index="0" speed="13.90" length="14.76" shape="558.00,762.13 557.87,757.58 559.21,755.09 562.00,754.66 566.25,756.30"/>
    </edge>
    <edge id=":24_4" function="internal">
        <lane id=":24_4_0" index="0" speed="13.90" length="4.82" shape="558.00,762.13 558.63,760.78 559.38,760.25 560.26,760.54 561.26,761.64"/>
    </edge>
    <edge id=":24_5" function="internal">
        <lane id=":24_5_0" index="0" speed="13.90" length="6.14" shape="564.69,759.21 562.92,758.53 561.76,758.71 561.21,759.74 561.26,761.64"/>
    </edge>
    <edge id=":24_6" function="internal">
        <lane id=":24_6_0" index="0" speed="13.90" length="11.44" shape="564.69,759.21 561.71,757.97 558.90,757.55 556.28,757.94 553.85,759.16"/>
    </edge>
    <edge id=":24_7" function="internal">
        <lane id=":24_7_0" index="0" speed="13.90" length="13.29" shape="564.69,759.21 561.62,757.51 558.96,755.76 556.62,753.67 554.51,750.93"/>
    </edge>
    <edge id=":24_8" function="internal">
        <lane id=":24_8_0" index="0" speed="13.90" length="14.26" shape="564.69,759.21 561.03,756.63 559.65,754.04 560.54,751.44 563.70,748.83"/>
    </edge>
    <edge id=":24_9" function="internal">
        <lane id=":24_9_0" index="0" speed="13.90" length="4.82" shape="564.69,759.21 563.99,757.90 564.02,756.98 564.77,756.45 566.25,756.30"/>
    </edge>
    <edge id=":24_10" function="internal">
        <lane id=":24_10_0" index="0" speed="13.90" length="6.42" shape="565.41,751.65 564.09,752.78 563.79,753.93 564.51,755.11 566.25,756.30"/>
    </edge>
    <edge id=":24_11" function="internal">
        <lane id=":24_11_0" index="0" speed="13.90" length="11.52" shape="565.41,751.65 563.21,753.46 561.78,755.73 561.13,758.45 561.26,761.64"/>
    </edge>
    <edge id=":24_12" function="internal">
        <lane id=":24_12_0" index="0" speed="13.90" length="13.79" shape="565.41,751.65 562.38,753.52 559.57,755.31 556.79,757.15 553.85,759.16"/>
    </edge>
    <edge id=":24_13" function="internal">
        <lane id=":24_13_0" index="0" speed="13.90" length="9.01" shape="565.41,751.65 561.92,753.32 558.93,753.76 556.92,753.11"/>
    </edge>
    <edge id=":24_14" function="internal">
        <lane id=":24_14_0" index="0" speed="13.90" length="2.41" shape="565.41,751.65 563.93,751.59 563.15,751.10"/>
    </edge>
    <edge id=":24_25" function="internal">
        <lane id=":24_25_0" index="0" speed="13.90" length="3.29" shape="556.92,753.11 556.47,752.96 554.51,750.93"/>
    </edge>
    <edge id=":24_26" function="internal">
        <lane id=":24_26_0" index="0" speed="13.90" length="2.41" shape="563.15,751.10 563.07,750.18 563.70,748.83"/>
    </edge>
    <edge id=":24_15" function="internal">
        <lane id=":24_15_0" index="0" speed="13.90" length="7.12" shape="557.29,749.15 558.31,750.10 559.72,750.36 561.51,749.94 563.70,748.83"/>
    </edge>
    <edge id=":24_16" function="internal">
        <lane id=":24_16_0" index="0" speed="13.90" length="11.65" shape="557.29,749.15 559.21,751.71 561.13,753.42 563.37,754.78 566.25,756.30"/>
    </edge>
    <edge id=":24_17" function="internal">
        <lane id=":24_17_0" index="0" speed="13.90" length="13.22" shape="557.29,749.15 558.94,752.18 560.00,755.12 560.70,758.19 561.26,761.64"/>
    </edge>
    <edge id=":24_18" function="internal">
        <lane id=":24_18_0" index="0" speed="13.90" length="11.91" shape="557.29,749.15 558.34,751.75 558.12,754.29 556.62,756.76 553.85,759.16"/>
    </edge>
    <edge id=":24_19" function="internal">
        <lane id=":24_19_0" index="0" speed="13.90" length="4.82" shape="557.29,749.15 557.26,750.64 556.79,751.43 555.87,751.53 554.51,750.93"/>
    </edge>
    <edge id=":24_20" function="internal">
        <lane id=":24_20_0" index="0" speed="13.90" length="6.76" shape="551.97,756.45 553.70,755.01 554.71,753.61 554.98,752.25 554.51,750.93"/>
    </edge>
    <edge id=":24_21" function="internal">
        <lane id=":24_21_0" index="0" speed="13.90" length="13.99" shape="551.97,756.45 554.93,754.42 557.77,752.55 560.64,750.72 563.70,748.83"/>
    </edge>
    <edge id=":24_22" function="internal">
        <lane id=":24_22_0" index="0" speed="13.90" length="9.34" shape="551.97,756.45 555.24,754.79 558.71,754.21 560.84,754.50"/>
    </edge>
    <edge id=":24_23" function="internal">
        <lane id=":24_23_0" index="0" speed="13.90" length="7.57" shape="551.97,756.45 555.43,754.77 558.13,755.08 558.78,755.83"/>
    </edge>
    <edge id=":24_24" function="internal">
        <lane id=":24_24_0" index="0" speed="13.90" length="2.41" shape="551.97,756.45 553.45,756.42 554.26,756.87"/>
    </edge>
    <edge id=":24_27" function="internal">
        <lane id=":24_27_0" index="0" speed="13.90" length="5.74" shape="560.84,754.50 562.38,754.71 566.25,756.30"/>
    </edge>
    <edge id=":24_28" function="internal">
        <lane id=":24_28_0" index="0" speed="13.90" length="6.44" shape="558.78,755.83 560.08,757.36 561.26,761.64"/>
    </edge>
    <edge id=":24_29" function="internal">
        <lane id=":24_29_0" index="0" speed="13.90" length="2.41" shape="554.26,756.87 554.40,757.78 553.85,759.16"/>
    </edge>
    <edge id=":318_0" function="internal">
        <lane id=":318_0_0" index="0" speed="13.90" length="4.82" shape="171.69,0.48 172.12,-0.94 172.79,-1.58 173.70,-1.42 174.85,-0.48"/>
    </edge>
    <edge id=":324_0" function="internal">
        <lane id=":324_0_0" index="0" speed="13.90" length="4.82" shape="368.86,126.96 370.35,126.99 371.14,127.46 371.24,128.38 370.64,129.74"/>
    </edge>
    <edge id=":37_0" function="internal">
        <lane id=":37_0_0" index="0" speed="13.90" length="10.58" shape="239.21,220.59 237.86,217.90 236.15,215.91 234.07,214.63 231.63,214.06"/>
    </edge>
    <edge id=":37_1" function="internal">
        <lane id=":37_1_0" index="0" speed="13.90" length="13.96" shape="239.21,220.59 237.94,217.23 236.79,214.04 235.71,210.82 234.63,207.40"/>
    </edge>
    <edge id=":37_2" function="internal">
        <lane id=":37_2_0" index="0" speed="13.90" length="8.83" shape="239.21,220.59 238.38,216.59 239.06,212.92 239.61,212.08"/>
    </edge>
    <edge id=":37_3" function="internal">
        <lane id=":37_3_0" index="0" speed="13.90" length="7.88" shape="239.21,220.59 238.30,216.41 239.38,213.82 240.13,213.57"/>
    </edge>
    <edge id=":37_4" function="internal">
        <lane id=":37_4_0" index="0" speed="13.90" length="2.41" shape="239.21,220.59 239.54,219.13 240.16,218.45"/>
    </edge>
    <edge id=":37_25" function="internal">
        <lane id=":37_25_0" index="0" speed="13.90" length="7.81" shape="239.61,212.08 241.26,209.56 244.98,206.53"/>
    </edge>
    <edge id=":37_26" function="internal">
        <lane id=":37_26_0" index="0" speed="13.90" length="7.51" shape="240.13,213.57 242.44,212.80 247.49,213.35"/>
    </edge>
    <edge id=":37_27" function="internal">
        <lane id=":37_27_0" index="0" speed="13.90" length="2.41" shape="240.16,218.45 241.08,218.54 242.29,219.40"/>
    </edge>
    <edge id=":37_5" function="internal">
        <lane id=":37_5_0" index="0" speed="13.90" length="7.23" shape="246.77,216.57 244.21,216.24 242.61,216.60 241.97,217.66 242.29,219.40"/>
    </edge>
    <edge id=":37_6" function="internal">
        <lane id=":37_6_0" index="0" speed="13.90" length="15.36" shape="246.77,216.57 243.05,215.78 239.24,215.07 235.41,214.48 231.63,214.06"/>
    </edge>
    <edge id=":37_7" function="internal">
        <lane id=":37_7_0" index="0" speed="13.90" length="15.95" shape="246.77,216.57 242.25,215.16 238.72,213.17 236.18,210.58 234.63,207.40"/>
    </edge>
    <edge id=":37_8" function="internal">