<?xml version="1.0" encoding="UTF-8"?>

<!-- generated on 02/19/14 15:19:14 by SUMO duarouter Version 0.19.0
<?xml version="1.0" encoding="UTF-8"?>

<configuration xmlns:xsi="http://www.w3.org/2001/XMLSchema-instance" xsi:noNamespaceSchemaLocation="http://sumo-sim.org/xsd/duarouterConfiguration.xsd">

    <input>
        <net-file value="rand20.net.xml"/>
        <trip-files value="rand20.trips.xml"/>
    </input>

    <output>
        <output-file value="rand20.rou.xml"/>
    </output>

</configuration>
-->

<routes xmlns:xsi="http://www.w3.org/2001/XMLSchema-instance" xsi:noNamespaceSchemaLocation="http://sumo-sim.org/xsd/routes_file.xsd">
    <vehicle id="0" depart="0.00">
        <route edges="-25 17 38 313"/>
    </vehicle>
    <vehicle id="1" depart="0.20">
        <route edges="-123 121 -64 38 325"/>
    </vehicle>
    <vehicle id="2" depart="0.40">
        <route edges="-319 -38 64 -121 123"/>
    </vehicle>
    <vehicle id="3" depart="0.60">
        <route edges="121 -121"/>
    </vehicle>
    <vehicle id="4" depart="0.80">
        <route edges="38 -38 -13"/>
    </vehicle>
    <vehicle id="5" depart="1.00">
        <route edges="-9 7"/>
    </vehicle>
    <vehicle id="6" depart="1.20">
        <route edges="-138 -25 17 38 -38"/>
    </vehicle>
    <vehicle id="7" depart="1.40">
        <route edges="-19 17 64 -64"/>
    </vehicle>
    <vehicle id="8" depart="1.60">
        <route edges="-3 9 25 126"/>
    </vehicle>
    <vehicle id="9" depart="1.80">
        <route edges="210 -210 126 -125"/>
    </vehicle>
    <vehicle id="10" depart="2.00">
        <route edges="121 -64 -13 -3"/>
    </vehicle>
    <vehicle id="11" depart="2.20">
        <route edges="-7 9 17"/>
    </vehicle>
    <vehicle id="12" depart="2.40">
        <route edges="121 -64 -17 25 128"/>
    </vehicle>
    <vehicle id="13" depart="2.60">
        <route edges="-11 3 13 38"/>
    </vehicle>
    <vehicle id="14" depart="2.80">
        <route edges="64 -64 -13 -3 11"/>
    </vehicle>
    <vehicle id="15" depart="3.00">
        <route edges="-11 9 17"/>
    </vehicle>
    <vehicle id="16" depart="3.20">
        <route edges="-11 3 13 64"/>
    </vehicle>
    <vehicle id="17" depart="3.40">
        <route edges="3 13 64 -121 123"/>
    </vehicle>
    <vehicle id="18" depart="3.60">
        <route edges="-210 138"/>
    </vehicle>
    <vehicle id="19" depart="3.80">
        <route edges="-116 -17 25 210 -210"/>
    </vehicle>
    <vehicle id="20" depart="4.00">
        <route edges="-116 64 -121 121"/>
    </vehicle>
    <vehicle id="21" depart="4.20">
        <route edges="-313 -117 -15 -3 3"/>
    </vehicle>
    <vehicle id="22" depart="4.40">
        <route edges="119 -119 117 -117"/>
    </vehicle>
    <vehicle id="23" depart="4.60">
        <route edges="-3"/>
    </vehicle>
    <vehicle id="24" depart="4.80">
        <route edges="-313 -38"/>
    </vehicle>
    <vehicle id="25" depart="5.00">
        <route edges="121 -64 38 319 -319"/>
    </vehicle>
    <vehicle id="26" depart="5.20">
        <route edges="313 -116 64 -121 125 -125"/>
    </vehicle>
    <vehicle id="27" depart="5.40">
        <route edges="64 -121"/>
    </vehicle>
    <vehicle id="28" depart="5.60">
        <route edges="313 -313 319"/>
    </vehicle>
    <vehicle id="29" depart="5.80">
        <route edges="319 -319 -38 64 -121 125"/>
    </vehicle>
    <vehicle id="30" depart="6.00">
        <route edges="325 -325 -117 -15 15"/>
    </vehicle>
    <vehicle id="31" depart="6.20">
        <route edges="117 -38 64"/>
    </vehicle>
    <vehicle id="32" depart="6.40">
        <route edges="-15 15 117 325 -325"/>
    </vehicle>
    <vehicle id="33" depart="6.60">
        <route edges="126 -125 -19 -9 7 -7"/>
    </vehicle>
    <vehicle id="34" depart="6.80">
        <route edges="3 -3 7"/>
    </vehicle>
    <vehicle id="35" depart="7.00">
        <route edges="-126 -25 17 -13 15 119"/>
    </vehicle>
    <vehicle id="36" depart="7.20">
        <route edges="-17 19 121"/>
    </vehicle>
    <vehicle id="37" depart="7.40">
        <route edges="-9 3 13 -17"/>
    </vehicle>
    <vehicle id="38" depart="7.60">
        <route edges="125 -125 -19"/>
    </vehicle>
    <vehicle id="39" depart="7.80">
        <route edges="313 -116 -13 -3 3"/>
    </vehicle>
    <vehicle id="40" depart="8.00">
        <route edges="-19"/>
    </vehicle>
    <vehicle id="41" depart="8.20">
        <route edges="-38"/>
    </vehicle>
    <vehicle id="42" depart="8.40">
        <route edges="210 -210 -25 -9 9"/>
    </vehicle>
    <vehicle id="43" depart="8.60">
        <route edges="9 17 64"/>
    </vehicle>
    <vehicle id="44" depart="8.80">
        <route edges="116 -313 325"/>
    </vehicle>
    <vehicle id="45" depart="9.00">
        <route edges="-3 9 -9"/>
    </vehicle>
    <vehicle id="46" depart="9.20">
        <route edges="319 -319 -38 64"/>
    </vehicle>
    <vehicle id="47" depart="9.40">
        <route edges="17 64 -121 125 -126"/>
    </vehicle>
    <vehicle id="48" depart="9.60">
        <route edges="-17 25 138 -138"/>
    </vehicle>
    <vehicle id="49" depart="9.80">
        <route edges="-123 121 -64 -13 15 -15"/>
    </vehicle>
    <vehicle id="50" depart="10.00">
        <route edges="-11 9 25 126"/>
    </vehicle>
    <vehicle id="51" depart="10.20">
        <route edges="-117 117 319 -319"/>
    </vehicle>
    <vehicle id="52" depart="10.40">
        <route edges="-11 9 19 123 -123"/>
    </vehicle>
    <vehicle id="53" depart="10.60">
        <route edges="-38 -13 -3 3"/>
    </vehicle>
    <vehicle id="54" depart="10.80">
        <route edges="126 -125 -19 -9 9"/>
    </vehicle>
    <vehicle id="55" depart="11.00">
        <route edges="126 -125 -19 -9 11 -11"/>
    </vehicle>
    <vehicle id="56" depart="11.20">
        <route edges="-11 9 25 126"/>
    </vehicle>
    <vehicle id="57" depart="11.40">
        <route edges="-64 -17 25 128 -128"/>
    </vehicle>
    <vehicle id="58" depart="11.60">
        <route edges="-119 -15 13"/>
    </vehicle>
    <vehicle id="59" depart="11.80">
        <route edges="-116 -13 -3"/>
    </vehicle>
    <vehicle id="60" depart="12.00">
        <route edges="-119 -15 13 64 -121 125 -125"/>
    </vehicle>
    <vehicle id="61" depart="12.20">
        <route edges="325 -325 -38 -17 19"/>
    </vehicle>
    <vehicle id="62" depart="12.40">
        <route edges="-3 9 25 138 -138"/>
    </vehicle>
    <vehicle id="63" depart="12.60">
        <route edges="121 -64 -17 25 126"/>
    </vehicle>
    <vehicle id="64" depart="12.80">
        <route edges="-17 25 126"/>
    </vehicle>
    <vehicle id="65" depart="13.00">
        <route edges="-38 -13 13"/>
    </vehicle>
    <vehicle id="66" depart="13.20">
        <route edges="-325 -38 64"/>
    </vehicle>
    <vehicle id="67" depart="13.40">
        <route edges="3 13 -17 25 210"/>
    </vehicle>
    <vehicle id="68" depart="13.60">
        <route edges="-3 9 19 123"/>
    </vehicle>
    <vehicle id="69" depart="13.80">
        <route edges="9"/>
    </vehicle>
    <vehicle id="70" depart="14.00">
        <route edges="-319 -117 -15 -3 11"/>
    </vehicle>
    <vehicle id="71" depart="14.20">
        <route edges="138 -138 -25 19 121"/>
    </vehicle>
    <vehicle id="72" depart="14.40">
        <route edges="-17 25 128 -128"/>
    </vehicle>
    <vehicle id="73" depart="14.60">
        <route edges="-64 64 -121 121"/>
    </vehicle>
    <vehicle id="74" depart="14.80">
        <route edges="319"/>
    </vehicle>
    <vehicle id="75" depart="15.00">
        <route edges="-25 -9 11"/>
    </vehicle>
    <vehicle id="76" depart="15.20">
        <route edges="38 -117 -15 -3 7"/>
    </vehicle>
    <vehicle id="77" depart="15.40">
        <route edges="-25 17 -13 -3"/>
    </vehicle>
    <vehicle id="78" depart="15.60">
        <route edges="-138 -25 17 38 325"/>
    </vehicle>
    <vehicle id="79" depart="15.80">
        <route edges="138 -138 -25 25"/>
    </vehicle>
    <vehicle id="80" depart="16.00">
        <route edges="138 -138 -25 19"/>
    </vehicle>
    <vehicle id="81" depart="16.20">
        <route edges="17 -17 -9"/>
    </vehicle>
    <vehicle id="82" depart="16.40">
        <route edges="-25 19 121"/>
    </vehicle>
    <vehicle id="83" depart="16.60">
        <route edges="7 -7 9 25"/>
    </vehicle>
    <vehicle id="84" depart="16.80">
        <route edges="-116 -17 25"/>
    </vehicle>
    <vehicle id="85" depart="17.00">
        <route edges="-313 313"/>
    </vehicle>
    <vehicle id="86" depart="17.20">
        <route edges="138 -138 -25 -9 9"/>
    </vehicle>
    <vehicle id="87" depart="17.40">
        <route edges="-319 -38 64 -121"/>
    </vehicle>
    <vehicle id="88" depart="17.60">
        <route edges="-138 -25"/>
    </vehicle>
    <vehicle id="89" depart="17.80">
        <route edges="-121 121 -64 38 319"/>
    </vehicle>
    <vehicle id="90" depart="18.00">
        <route edges="17 -13 -3 11 -11"/>
    </vehicle>
    <vehicle id="91" depart="18.20">
        <route edges="-64 116 -116"/>
    </vehicle>
    <vehicle id="92" depart="18.40">
        <route edges="-121 -19 -9 11 -11"/>
    </vehicle>
    <vehicle id="93" depart="18.60">
        <route edges="64 -64 -17 25 128 -128"/>
    </vehicle>
    <vehicle id="94" depart="18.80">
        <route edges="-17 17 -13 15 119 -119"/>
    </vehicle>
    <vehicle id="95" depart="19.00">
        <route edges="-19 17 38 319"/>
    </vehicle>
    <vehicle id="96" depart="19.20">
        <route edges="-325 -38 64 -121 121"/>
    </vehicle>
    <vehicle id="97" depart="19.40">
        <route edges="7 -7 9 17"/>
    </vehicle>
    <vehicle id="98" depart="19.60">
        <route edges="-138 -25"/>
    </vehicle>
    <vehicle id="99" depart="19.80">
        <route edges="126 -126 -25"/>
    </vehicle>
    <vehicle id="100" depart="20.00">
        <route edges="17 -17 25 210 -210"/>
    </vehicle>
    <vehicle id="101" depart="20.20">
        <route edges="-121"/>
    </vehicle>
    <vehicle id="102" depart="20.40">
        <route edges="64 -121 125 -125"/>
    </vehicle>
    <vehicle id="103" depart="20.60">
        <route edges="-138 -25 -9 11 -11"/>
    </vehicle>
    <vehicle id="104" depart="20.80">
        <route edges="-117 -15 13 -17 -9"/>
    </vehicle>
    <vehicle id="105" depart="21.00">
        <route edges="9 19 123 -123"/>
    </vehicle>
    <vehicle id="106" depart="21.20">
        <route edges="-319 -38 -17 25 210 -210"/>
    </vehicle>
    <vehicle id="107" depart="21.40">
        <route edges="125 -125 121 -64 38 -38"/>
    </vehicle>
    <vehicle id="108" depart="21.60">
        <route edges="-138 -25 17 -13 15 119"/>
    </vehicle>
    <vehicle id="109" depart="21.80">
        <route edges="319 -319 -38 -17 25 138"/>
    </vehicle>
    <vehicle id="110" depart="22.00">
        <route edges="116 -116"/>
    </vehicle>
    <vehicle id="111" depart="22.20">
        <route edges="-13 13 -17 25 138 -138"/>
    </vehicle>
    <vehicle id="112" depart="22.40">
        <route edges="-9 3 15 117 325 -325"/>
    </vehicle>
    <vehicle id="113" depart="22.60">
        <route edges="121 -64 -17 17"/>
    </vehicle>
    <vehicle id="114" depart="22.80">
        <route edges="-128 -25 -9 9"/>
    </vehicle>
    <vehicle id="115" depart="23.00">
        <route edges="319 -319 -38 -17 25 -25"/>
    </vehicle>
    <vehicle id="116" depart="23.20">
        <route edges="-13 13 -17"/>
    </vehicle>
    <vehicle id="117" depart="23.40">
        <route edges="319 -319 -117 -15 -3 11"/>
    </vehicle>
    <vehicle id="118" depart="23.60">
        <route edges="-119 117 319 -319"/>
    </vehicle>
    <vehicle id="119" depart="23.80">
        <route edges="128 -128 -25 19 123 -123"/>
    </vehicle>
    <vehicle id="120" depart="24.00">
        <route edges="11 -11 9 25 210 -210"/>
    </vehicle>
    <vehicle id="121" depart="24.20">
        <route edges="-17 19"/>
    </vehicle>
    <vehicle id="122" depart="24.40">
        <route edges="-121 121 -64 -17"/>
    </vehicle>
    <vehicle id="123" depart="24.60">
        <route edges="-7 9 19 123"/>
    </vehicle>
    <vehicle id="124" depart="24.80">
        <route edges="7"/>
    </vehicle>
    <vehicle id="125" depart="25.00">
        <route edges="-138 -25 17 38 313"/>
    </vehicle>
    <vehicle id="126" depart="25.20">
        <route edges="-9 3"/>
    </vehicle>
    <vehicle id="127" depart="25.40">
        <route edges="-119 -15 13 64 -121"/>
    </vehicle>
    <vehicle id="128" depart="25.60">
        <route edges="121"/>
    </vehicle>
    <vehicle id="129" depart="25.80">
        <route edges="-17 17 -13 15 119"/>
    </vehicle>
    <vehicle id="130" depart="26.00">
        <route edges="3 13 -17 25 126"/>
    </vehicle>
    <vehicle id="131" depart="26.20">
        <route edges="-11 3 13 -17"/>
    </vehicle>
    <vehicle id="132" depart="26.40">
        <route edges="-9 9 25 210"/>
    </vehicle>
    <vehicle id="133" depart="26.60">
        <route edges="-121 -19 25"/>
    </vehicle>
    <vehicle id="134" depart="26.80">
        <route edges="-25 17 -17"/>
    </vehicle>
    <vehicle id="135" depart="27.00">
        <route edges="19 -19 -9 7"/>
    </vehicle>
    <vehicle id="136" depart="27.20">
        <route edges="11 -11 3 13 -13"/>
    </vehicle>
    <vehicle id="137" depart="27.40">
        <route edges="-313 313 -116"/>
    </vehicle>
    <vehicle id="138" depart="27.60">
        <route edges="3 13 -17 25 126"/>
    </vehicle>
    <vehicle id="139" depart="27.80">
        <route edges="-11 9 -9"/>
    </vehicle>
    <vehicle id="140" depart="28.00">
        <route edges="-64 -17 19"/>
    </vehicle>
    <vehicle id="141" depart="28.20">
        <route edges="138 -138 -25 17 38 -117"/>
    </vehicle>
    <vehicle id="142" depart="28.40">
        <route edges="-3 3 15 117"/>
    </vehicle>
    <vehicle id="143" depart="28.60">
        <route edges="319 -319 -38 -17 25"/>
    </vehicle>
    <vehicle id="144" depart="28.80">
        <route edges="-3 9 19 125 -126"/>
    </vehicle>
    <vehicle id="145" depart="29.00">
        <route edges="-64 64 -121 125 -126"/>
    </vehicle>
    <vehicle id="146" depart="29.20">
        <route edges="-138 -25 17 -13 15 119 -119"/>
    </vehicle>
    <vehicle id="147" depart="29.40">
        <route edges="325 -325 -117 -15 13"/>
    </vehicle>
    <vehicle id="148" depart="29.60">
        <route edges="-64 64 -121 125"/>
    </vehicle>
    <vehicle id="149" depart="29.80">
        <route edges="128 -128 -25 17 64"/>
    </vehicle>
    <vehicle id="150" depart="30.00">
        <route edges="-126 126"/>
    </vehicle>
    <vehicle id="151" depart="30.20">
        <route edges="-128 -25 -9 7 -7"/>
    </vehicle>
    <vehicle id="152" depart="30.40">
        <route edges="-64 -13 -3 7"/>
    </vehicle>
    <vehicle id="153" depart="30.60">
        <route edges="126 -125 -19"/>
    </vehicle>
    <vehicle id="154" depart="30.80">
        <route edges="313 -116 -17 25 210 -210"/>
    </vehicle>
    <vehicle id="155" depart="31.00">
        <route edges="-119 -15 13 64 -121"/>
    </vehicle>
    <vehicle id="156" depart="31.20">
        <route edges="19 121 -64 38 -117"/>
    </vehicle>
    <vehicle id="157" depart="31.40">
        <route edges="126 -125 121 -64 -13 15 -15"/>
    </vehicle>
    <vehicle id="158" depart="31.60">
        <route edges="-9 3 15 117 319 -319"/>
    </vehicle>
    <vehicle id="159" depart="31.80">
        <route edges="-125 -19 -9 3"/>
    </vehicle>
    <vehicle id="160" depart="32.00">
        <route edges="25 -25 19 -19"/>
    </vehicle>
    <vehicle id="161" depart="32.20">
        <route edges="9"/>
    </vehicle>
    <vehicle id="162" depart="32.40">
        <route edges="19 -19 25 138"/>
    </vehicle>
    <vehicle id="163" depart="32.60">
        <route edges="-325 313 -116"/>
    </vehicle>
    <vehicle id="164" depart="32.80">
        <route edges="-25 25"/>
    </vehicle>
    <vehicle id="165" depart="33.00">
        <route edges="319 -319 -38 64 -121 121"/>
    </vehicle>
    <vehicle id="166" depart="33.20">
        <route edges="123 -123 121 -64 38 -38"/>
    </vehicle>
    <vehicle id="167" depart="33.40">
        <route edges="15 117 325 -325"/>
    </vehicle>
    <vehicle id="168" depart="33.60">
        <route edges="-123 -19 -9 11"/>
    </vehicle>
    <vehicle id="169" depart="33.80">
        <route edges="-25 17 116 -116"/>
    </vehicle>
    <vehicle id="170" depart="34.00">
        <route edges="-117 117 319 -319"/>
    </vehicle>
    <vehicle id="171" depart="34.20">
        <route edges="11 -11 3 13 116"/>
    </vehicle>
    <vehicle id="172" depart="34.40">
        <route edges="-123 121 -64 38 319"/>
    </vehicle>
    <vehicle id="173" depart="34.60">
        <route edges="-319 -38 64 -121 123"/>
    </vehicle>
    <vehicle id="174" depart="34.80">
        <route edges="-125 -19 25 210 -210"/>
    </vehicle>
    <vehicle id="175" depart="35.00">
        <route edges="138 -138 -25 -9 3"/>
    </vehicle>
    <vehicle id="176" depart="35.20">
        <route edges="138 -138 -25 17 38 319"/>
    </vehicle>
    <vehicle id="177" depart="35.40">
        <route edges="119 -119 -15 13 -17 25 138 -138"/>
    </vehicle>
    <vehicle id="178" depart="35.60">
        <route edges="-25 19 121"/>
    </vehicle>
    <vehicle id="179" depart="35.80">
        <route edges="-7 9 19 121"/>
    </vehicle>
    <vehicle id="180" depart="36.00">
        <route edges="210 -210 -25"/>
    </vehicle>
    <vehicle id="181" depart="36.20">
        <route edges="125 -125 121 -64 38 -38"/>
    </vehicle>
    <vehicle id="182" depart="36.40">
        <route edges="-17 -9"/>
    </vehicle>
    <vehicle id="183" depart="36.60">
        <route edges="-128 -25 17 -13 -3"/>
    </vehicle>
    <vehicle id="184" depart="36.80">
        <route edges="119 -119 -15 13 -17 -9"/>
    </vehicle>
    <vehicle id="185" depart="37.00">
        <route edges="19 -19 25 126"/>
    </vehicle>
    <vehicle id="186" depart="37.20">
        <route edges="-3 3 15 117 325"/>
    </vehicle>
    <vehicle id="187" depart="37.40">
        <route edges="19 121 -64 -13 -3"/>
    </vehicle>
    <vehicle id="188" depart="37.60">
        <route edges="-117 -15 13 116"/>
    </vehicle>
    <vehicle id="189" depart="37.80">
        <route edges="-319 -117 -15 -3 7"/>
    </vehicle>
    <vehicle id="190" depart="38.00">
        <route edges="19 121 -64 38 313"/>
    </vehicle>
    <vehicle id="191" depart="38.20">
        <route edges="117 -38 64 -121 125 -126"/>
    </vehicle>
    <vehicle id="192" depart="38.40">
        <route edges="25 -25 17 38 319 -319"/>
    </vehicle>
    <vehicle id="193" depart="38.60">
        <route edges="64 -121"/>
    </vehicle>
    <vehicle id="194" depart="38.80">
        <route edges="319 -319 -38 -17 25 138"/>
    </vehicle>
    <vehicle id="195" depart="39.00">
        <route edges="-19 17 -13 15"/>
    </vehicle>
    <vehicle id="196" depart="39.20">
        <route edges="-38 -13 -3 3"/>
    </vehicle>
    <vehicle id="197" depart="39.40">
        <route edges="325 -325 -38 64 -121 125 -126"/>
    </vehicle>
    <vehicle id="198" depart="39.60">
        <route edges="-126 -25 17 38 325"/>
    </vehicle>
    <vehicle id="199" depart="39.80">
        <route edges="38 -117"/>
    </vehicle>
    <vehicle id="200" depart="40.00">
        <route edges="-138 -25 -9"/>
    </vehicle>
    <vehicle id="201" depart="40.20">
        <route edges="-38 -13 -3 9"/>
    </vehicle>
    <vehicle id="202" depart="40.40">
        <route edges="121 -64 -17"/>
    </vehicle>
    <vehicle id="203" depart="40.60">
        <route edges="-325 -38 116"/>
    </vehicle>
    <vehicle id="204" depart="40.80">
        <route edges="119 -119 -15 13 64 -121 123"/>
    </vehicle>
    <vehicle id="205" depart="41.00">
        <route edges="-19 17 38 319 -319"/>
    </vehicle>
    <vehicle id="206" depart="41.20">
        <route edges="-7 3 15 117 313"/>
    </vehicle>
    <vehicle id="207" depart="41.40">
        <route edges="-123 121 -64 -13"/>
    </vehicle>
    <vehicle id="208" depart="41.60">
        <route edges="319 -319 313"/>
    </vehicle>
    <vehicle id="209" depart="41.80">
        <route edges="-126 -25 -9 3"/>
    </vehicle>
    <vehicle id="210" depart="42.00">
        <route edges="-119 -15 13 -17 25 -25"/>
    </vehicle>
    <vehicle id="211" depart="42.20">
        <route edges="17 -17 -9"/>
    </vehicle>
    <vehicle id="212" depart="42.40">
        <route edges="123 -123 -19 25 -25"/>
    </vehicle>
    <vehicle id="213" depart="42.60">
        <route edges="-210 128 -128"/>
    </vehicle>
    <vehicle id="214" depart="42.80">
        <route edges="-319 -38 -17 25 128"/>
    </vehicle>
    <vehicle id="215" depart="43.00">
        <route edges="-19 17 -13"/>
    </vehicle>
    <vehicle id="216" depart="43.20">
        <route edges="-116 116"/>
    </vehicle>
    <vehicle id="217" depart="43.40">
        <route edges="7 -7 9 25 210"/>
    </vehicle>
    <vehicle id="218" depart="43.60">
        <route edges="-38 -17 19"/>
    </vehicle>
    <vehicle id="219" depart="43.80">
        <route edges="-138 -25 17 38"/>
    </vehicle>
    <vehicle id="220" depart="44.00">
        <route edges="-210 -25 17 -13 15 119 -119"/>
    </vehicle>
    <vehicle id="221" depart="44.20">
        <route edges="-15 13 64 -64"/>
    </vehicle>
    <vehicle id="222" depart="44.40">
        <route edges="-7"/>
    </vehicle>
    <vehicle id="223" depart="44.60">
        <route edges="128 -128 138"/>
    </vehicle>
    <vehicle id="224" depart="44.80">
        <route edges="-15 13 64 -64"/>
    </vehicle>
    <vehicle id="225" depart="45.00">
        <route edges="138 -138 210"/>
    </vehicle>
    <vehicle id="226" depart="45.20">
        <route edges="-11 3 15 117 319 -319"/>
    </vehicle>
    <vehicle id="227" depart="45.40">
        <route edges="-121 125 -125"/>
    </vehicle>
    <vehicle id="228" depart="45.60">
        <route edges="128 -128 -25 17"/>
    </vehicle>
    <vehicle id="229" depart="45.80">
        <route edges="-117 -15 13 -13"/>
    </vehicle>
    <vehicle id="230" depart="46.00">
        <route edges="15 -15 13 64 -121 125"/>
    </vehicle>
    <vehicle id="231" depart="46.20">
        <route edges="13 64 -121 123"/>
    </vehicle>
    <vehicle id="232" depart="46.40">
        <route edges="-19 19 125"/>
    </vehicle>
    <vehicle id="233" depart="46.60">
        <route edges="325 -325 -117 119 -119"/>
    </vehicle>
    <vehicle id="234" depart="46.80">
        <route edges="-19 19"/>
    </vehicle>
    <vehicle id="235" depart="47.00">
        <route edges="-17 17 116"/>
    </vehicle>
    <vehicle id="236" depart="47.20">
        <route edges="-64 116"/>
    </vehicle>
    <vehicle id="237" depart="47.40">
        <route edges="138 -138 -25 17 116 -313"/>
    </vehicle>
    <vehicle id="238" depart="47.60">
        <route edges="-13 13 116 -116"/>
    </vehicle>
    <vehicle id="239" depart="47.80">
        <route edges="325 -325 -38 64 -121 121"/>
    </vehicle>
    <vehicle id="240" depart="48.00">
        <route edges="7 -7 9 19 125"/>
    </vehicle>
    <vehicle id="241" depart="48.20">
        <route edges="-7 9 25"/>
    </vehicle>
    <vehicle id="242" depart="48.40">
        <route edges="126 -125 121 -64 -13 15"/>
    </vehicle>
    <vehicle id="243" depart="48.60">
        <route edges="-128 -25 17 38 313"/>
    </vehicle>
    <vehicle id="244" depart="48.80">
        <route edges="138 -138 -25 -9 11 -11"/>
    </vehicle>
    <vehicle id="245" depart="49.00">
        <route edges="-319 -38 38"/>
    </vehicle>
    <vehicle id="246" depart="49.20">
        <route edges="-128 126"/>
    </vehicle>
    <vehicle id="247" depart="49.40">
        <route edges="-9 9 25"/>
    </vehicle>
    <vehicle id="248" depart="49.60">
        <route edges="-15 13 116"/>
    </vehicle>
    <vehicle id="249" depart="49.80">
        <route edges="-3 3"/>
    </vehicle>
</routes>
